 This run of the CFX 2020 R2 Solver started at 22:51:45 on 11 May 2023
 by user Shawn on ANDRIODSXX (intel_xeon64.sse2_winnt) using the
 command:
 
  "C:\Program Files\ANSYS Inc\v202\CFX\bin\perllib\cfx5solve.pl" -batch
    -ccl runInput.ccl -fullname CFX_004
 
 2020 R2
 
  Point Releases and Patches installed:
  ANSYS, Inc. Products 2020 R2
  SpaceClaim 2020 R2
  Discovery 2020 R2
  AIM 2020 R2
  Live (includes SpaceClaim) 2020 R2
  ANSYS Sherlock 2020 R2
  Autodyn 2020 R2
  LS-DYNA 2020 R2
  CFD-Post only 2020 R2
  CFX (includes CFD-Post) 2020 R2
  Chemkin 2020 R2
  EnSight 2020 R2
  FENSAP-ICE 2020 R2
  Fluent (includes CFD-Post) 2020 R2
  Forte (includes EnSight) 2020 R2
  Polyflow (includes CFD-Post) 2020 R2
  TurboGrid 2020 R2
  ICEM CFD 2020 R2
  Aqwa 2020 R2
  SPEOS 2020 R2
  Customization Files for User Programmable Features 2020 R2
  Mechanical Products 2020 R2
  Additive 2020 R2
  Icepak (includes CFD-Post) 2020 R2
  Remote Solve Manager Standalone Services 2020 R2
  Viewer 2020 R2
  ACIS Geometry Interface 2020 R2
  AutoCAD Geometry Interface 2020 R2
  Catia, Version 4 Geometry Interface 2020 R2
  Catia, Version 5 Geometry Interface 2020 R2
  Catia, Version 6 Geometry Interface 2020 R2
  Creo Elements/Direct Modeling Geometry Interface 2020 R2
  Creo Parametric Geometry Interface 2020 R2
  Inventor Geometry Interface 2020 R2
  JTOpen Geometry Interface 2020 R2
  NX Geometry Interface 2020 R2
  Parasolid Geometry Interface  2020 R2
  Solid Edge Geometry Interface 2020 R2
  SOLIDWORKS Geometry Interface 2020 R2
  ANSYS, Inc. License Manager 2020 R2
 
 Setting up CFX Solver run ...
 

 +--------------------------------------------------------------------+
 |                              Warning!                              |
 |                                                                    |
 | The working directory is a UNC path, but the Windows command shell |
 | is currently not configured to support UNC paths. This may cause   |
 | failure of the CFX Solver.                                         |
 |                                                                    |
 | Command shell support for UNC paths can be enabled by setting the  |
 | Windows registry key DisableUNCCheck.                              |
 +--------------------------------------------------------------------+

 
 +--------------------------------------------------------------------+
 |                                                                    |
 |                    CFX Command Language for Run                    |
 |                                                                    |
 +--------------------------------------------------------------------+
 
 LIBRARY:
   CEL:
     EXPRESSIONS:
       BCP4 = 1 [bar]
       BCPtin = 1.4 [bar]
       BCT3t = 873.15 [K]
       BCu5 = 420 [m s^-1]
       D5 = 91 [mm]
       Massflowin = massFlow()@R1 Inlet
       P3t = massFlowAve(Total Pressure in Stn Frame)@R1 Inlet
       P4s = massFlowAve(Pressure)@R1 Outlet
       PR = P3t/P4s
       T3t = massFlowAve(Total Temperature in Stn Frame)@R1 Inlet
       T4s = massFlowAve(Temperature)@R1 Outlet
       T4t = massFlowAve(Total Temperature in Stn Frame)@R1 Outlet
       TFP = Massflowin * T3t^0.5 / P3t*100000
       etats = (1-T4t/T3t)/( 1 - (PR)^((1-1.4)/1.4) )
       omega = BCu5/D5*2
     END
   END
   MATERIAL: Air Ideal Gas
     Material Description = Air Ideal Gas (constant Cp)
     Material Group = Air Data, Calorically Perfect Ideal Gases
     Option = Pure Substance
     Thermodynamic State = Gas
     PROPERTIES:
       Option = General Material
       EQUATION OF STATE:
         Molar Mass = 28.96 [kg kmol^-1]
         Option = Ideal Gas
       END
       SPECIFIC HEAT CAPACITY:
         Option = Value
         Specific Heat Capacity = 1.0044E+03 [J kg^-1 K^-1]
         Specific Heat Type = Constant Pressure
       END
       REFERENCE STATE:
         Option = Specified Point
         Reference Pressure = 1 [atm]
         Reference Specific Enthalpy = 0. [J/kg]
         Reference Specific Entropy = 0. [J/kg/K]
         Reference Temperature = 25 [C]
       END
       DYNAMIC VISCOSITY:
         Dynamic Viscosity = 1.831E-05 [kg m^-1 s^-1]
         Option = Value
       END
       THERMAL CONDUCTIVITY:
         Option = Value
         Thermal Conductivity = 2.61E-2 [W m^-1 K^-1]
       END
       ABSORPTION COEFFICIENT:
         Absorption Coefficient = 0.01 [m^-1]
         Option = Value
       END
       SCATTERING COEFFICIENT:
         Option = Value
         Scattering Coefficient = 0.0 [m^-1]
       END
       REFRACTIVE INDEX:
         Option = Value
         Refractive Index = 1.0 [m m^-1]
       END
     END
   END
 END
 FLOW: Flow Analysis 1
   SOLUTION UNITS:
     Angle Units = [rad]
     Length Units = [m]
     Mass Units = [kg]
     Solid Angle Units = [sr]
     Temperature Units = [K]
     Time Units = [s]
   END
   ANALYSIS TYPE:
     Option = Steady State
     EXTERNAL SOLVER COUPLING:
       Option = None
     END
   END
   DOMAIN: R1
     Coord Frame = Coord 0
     Domain Type = Fluid
     Location = Passage Main
     BOUNDARY: R1 Blade
       Boundary Type = WALL
       Frame Type = Rotating
       Location = BLADE
       BOUNDARY CONDITIONS:
         HEAT TRANSFER:
           Option = Adiabatic
         END
         MASS AND MOMENTUM:
           Option = No Slip Wall
         END
         WALL ROUGHNESS:
           Option = Smooth Wall
         END
       END
     END
     BOUNDARY: R1 Hub
       Boundary Type = WALL
       Frame Type = Rotating
       Location = HUB
       BOUNDARY CONDITIONS:
         HEAT TRANSFER:
           Option = Adiabatic
         END
         MASS AND MOMENTUM:
           Option = No Slip Wall
         END
         WALL ROUGHNESS:
           Option = Smooth Wall
         END
       END
     END
     BOUNDARY: R1 Inlet
       Boundary Type = INLET
       Frame Type = Stationary
       Location = INFLOW
       BOUNDARY CONDITIONS:
         FLOW DIRECTION:
           Option = Cylindrical Components
           Unit Vector Axial Component = 0
           Unit Vector Theta Component = 4
           Unit Vector r Component = -1
         END
         FLOW REGIME:
           Option = Subsonic
         END
         HEAT TRANSFER:
           Option = Stationary Frame Total Temperature
           Stationary Frame Total Temperature = BCT3t
         END
         MASS AND MOMENTUM:
           Option = Stationary Frame Total Pressure
           Relative Pressure = BCPtin
         END
         TURBULENCE:
           Option = Medium Intensity and Eddy Viscosity Ratio
         END
       END
     END
     BOUNDARY: R1 Outlet
       Boundary Type = OUTLET
       Frame Type = Stationary
       Location = OUTFLOW
       BOUNDARY CONDITIONS:
         FLOW REGIME:
           Option = Subsonic
         END
         MASS AND MOMENTUM:
           Option = Average Static Pressure
           Pressure Profile Blend = 0.05
           Relative Pressure = 1 [bar]
         END
         PRESSURE AVERAGING:
           Option = Average Over Whole Outlet
         END
       END
     END
     BOUNDARY: R1 Shroud
       Boundary Type = WALL
       Frame Type = Rotating
       Location = SHROUD
       BOUNDARY CONDITIONS:
         HEAT TRANSFER:
           Option = Adiabatic
         END
         MASS AND MOMENTUM:
           Option = No Slip Wall
           WALL VELOCITY:
             Option = Counter Rotating Wall
           END
         END
         WALL ROUGHNESS:
           Option = Smooth Wall
         END
       END
     END
     BOUNDARY: R1 to R1 Periodic 1 Side 1
       Boundary Type = INTERFACE
       Location = PER1
       BOUNDARY CONDITIONS:
         HEAT TRANSFER:
           Option = Conservative Interface Flux
         END
         MASS AND MOMENTUM:
           Option = Conservative Interface Flux
         END
         TURBULENCE:
           Option = Conservative Interface Flux
         END
       END
     END
     BOUNDARY: R1 to R1 Periodic 1 Side 2
       Boundary Type = INTERFACE
       Location = PER2
       BOUNDARY CONDITIONS:
         HEAT TRANSFER:
           Option = Conservative Interface Flux
         END
         MASS AND MOMENTUM:
           Option = Conservative Interface Flux
         END
         TURBULENCE:
           Option = Conservative Interface Flux
         END
       END
     END
     DOMAIN MODELS:
       BUOYANCY MODEL:
         Option = Non Buoyant
       END
       DOMAIN MOTION:
         Alternate Rotation Model = true
         Angular Velocity = omega
         Option = Rotating
         AXIS DEFINITION:
           Option = Coordinate Axis
           Rotation Axis = Coord 0.3
         END
       END
       MESH DEFORMATION:
         Option = None
       END
       REFERENCE PRESSURE:
         Reference Pressure = 0 [atm]
       END
     END
     FLUID DEFINITION: Air Ideal Gas
       Material = Air Ideal Gas
       Option = Material Library
       MORPHOLOGY:
         Option = Continuous Fluid
       END
     END
     FLUID MODELS:
       COMBUSTION MODEL:
         Option = None
       END
       HEAT TRANSFER MODEL:
         Include Viscous Work Term = True
         Option = Total Energy
       END
       THERMAL RADIATION MODEL:
         Option = None
       END
       TURBULENCE MODEL:
         Option = SST
       END
       TURBULENT WALL FUNCTIONS:
         High Speed Model = Off
         Option = Automatic
       END
     END
     INITIALISATION:
       Frame Type = Stationary
       Option = Automatic
       INITIAL CONDITIONS:
         Velocity Type = Cylindrical
         CYLINDRICAL VELOCITY COMPONENTS:
           Option = Automatic with Value
           Velocity Axial Component = 0 [m s^-1]
           Velocity Theta Component = 50 [m s^-1]
           Velocity r Component = -50 [m s^-1]
         END
         STATIC PRESSURE:
           Option = Automatic
         END
         TEMPERATURE:
           Option = Automatic
         END
         TURBULENCE INITIAL CONDITIONS:
           Option = Medium Intensity and Eddy Viscosity Ratio
         END
       END
     END
   END
   DOMAIN INTERFACE: R1 to R1 Periodic 1
     Boundary List1 = R1 to R1 Periodic 1 Side 1
     Boundary List2 = R1 to R1 Periodic 1 Side 2
     Interface Type = Fluid Fluid
     INTERFACE MODELS:
       Option = Rotational Periodicity
       AXIS DEFINITION:
         Option = Coordinate Axis
         Rotation Axis = Coord 0.3
       END
     END
     MESH CONNECTION:
       Option = Automatic
     END
   END
   OUTPUT CONTROL:
     MONITOR OBJECTS:
       EFFICIENCY OUTPUT:
         Efficiency Calculation Method = Total to Static
         Efficiency Type = Expansion
         Inflow Boundary = R1 Inlet
         Option = Output To Solver Monitor
         Outflow Boundary = R1 Outlet
       END
       MONITOR BALANCES:
         Option = Full
       END
       MONITOR FORCES:
         Option = Full
       END
       MONITOR PARTICLES:
         Option = Full
       END
       MONITOR POINT: MP Etats
         Coord Frame = Coord 0
         Expression Value = etats
         Option = Expression
       END
       MONITOR POINT: MP PR
         Coord Frame = Coord 0
         Expression Value = PR
         Option = Expression
       END
       MONITOR POINT: MP TFP
         Coord Frame = Coord 0
         Expression Value = TFP
         Option = Expression
       END
       MONITOR RESIDUALS:
         Option = Full
       END
       MONITOR TOTALS:
         Option = Full
       END
     END
     RESULTS:
       File Compression Level = Default
       Option = Standard
     END
   END
   SOLVER CONTROL:
     Turbulence Numerics = First Order
     ADVECTION SCHEME:
       Option = High Resolution
     END
     CONVERGENCE CONTROL:
       Length Scale Option = Conservative
       Maximum Number of Iterations = 200
       Minimum Number of Iterations = 1
       Timescale Control = Auto Timescale
       Timescale Factor = 1.0
     END
     CONVERGENCE CRITERIA:
       Residual Target = 1.E-4
       Residual Type = RMS
     END
     DYNAMIC MODEL CONTROL:
       Global Dynamic Model Control = On
     END
     INTERRUPT CONTROL:
       Option = Any Interrupt
       CONVERGENCE CONDITIONS:
         Option = Default Conditions
       END
     END
   END
 END
 COMMAND FILE:
   Version = 20.2
   Results Version = 20.2
 END
 PARAMETERIZATION:
   INPUT FIELD: BCP4
     Expression Name = BCP4
     Method = Expression
   END
   INPUT FIELD: BCPtin
     Expression Name = BCPtin
     Method = Expression
   END
   INPUT FIELD: BCT3t
     Expression Name = BCT3t
     Method = Expression
   END
   INPUT FIELD: BCu5
     Expression Name = BCu5
     Method = Expression
   END
 END
 SIMULATION CONTROL:
   EXECUTION CONTROL:
     EXECUTABLE SELECTION:
       Double Precision = No
       Large Problem = No
     END
     INTERPOLATOR STEP CONTROL:
       Runtime Priority = Standard
       MEMORY CONTROL:
         Memory Allocation Factor = 1.0
       END
     END
     PARALLEL HOST LIBRARY:
       HOST DEFINITION: andriodsxx
         Host Architecture String = winnt-amd64
         Installation Root = C:\Program Files\ANSYS Inc\v%v\CFX
       END
     END
     PARTITIONER STEP CONTROL:
       Multidomain Option = Automatic
       Runtime Priority = Standard
       MEMORY CONTROL:
         Memory Allocation Factor = 1.0
       END
       PARTITION SMOOTHING:
         Maximum Partition Smoothing Sweeps = 100
         Option = Smooth
       END
       PARTITIONING TYPE:
         MeTiS Type = k-way
         Option = MeTiS
         Partition Size Rule = Automatic
         Partition Weight Factors = 0.16667, 0.16667, 0.16667, 0.16667, \
           0.16667, 0.16667
       END
     END
     RUN DEFINITION:
       Run Mode = Full
       Solver Input File = CFX.def
       Solver Results File = \
         //wsl.localhost/Ubuntu-22.04/root/LearnOpenFOAM/BasicOpenFOAMProgramm\
         ingTutorials/OFtutorialTest04_MRF/turbine/mesh/wheel_pending/dp0_CFX_\
         Solution/CFX_004.res
       INITIAL VALUES SPECIFICATION:
         INITIAL VALUES CONTROL:
           Use Mesh From = Solver Input File
           Continue History From = Workbench Initial Values
         END
         INITIAL VALUES: Workbench Initial Values
           Option = Results File
           File Name = CFX_003.res
         END
       END
     END
     SOLVER STEP CONTROL:
       Runtime Priority = Standard
       MEMORY CONTROL:
         Memory Allocation Factor = 1.0
       END
       PARALLEL ENVIRONMENT:
         Number of Processes = 6
         Start Method = Intel MPI Local Parallel
         Parallel Host List = andriodsxx*6
       END
     END
   END
 END
 
 
 +--------------------------------------------------------------------+
 |                                                                    |
 |                  Interpolation of Initial Values                   |
 |                                                                    |
 +--------------------------------------------------------------------+
 
 


 +--------------------------------------------------------------------+
 |                                                                    |
 |                    ANSYS(R) CFX(R) Interpolator                    |
 |                                                                    |
 | 2020 R2                                                            |
 | Build 20.2 2020-05-29T15:06:09.465000                              |
 | Fri May 29 17:17:43 GMTDT 2020                                     |
 |                                                                    |
 |                        Executable Attributes                       |
 |                                                                    |
 |           single-64bit-int32-archfort-optimised-std-lcomp          |
 |                                                                    |
 | (C) 1996-2020 ANSYS, Inc.                                          |
 |                                                                    |
 | All rights reserved. Unauthorized use, distribution or duplication |
 | is prohibited. This product is subject to U.S. laws governing      |
 | export and re-export. For full Legal Notice, see documentation.    |
 +--------------------------------------------------------------------+




 +--------------------------------------------------------------------+
 |                  Job Information at Start of Run                   |
 +--------------------------------------------------------------------+

 Run mode:       serial run

 Host computer:  ANDRIODSXX (PID:12656)

 Job started:    Thu May 11 22:51:45 2023


 +--------------------------------------------------------------------+
 |        Memory Allocated for Run  (Actual usage may be less)        |
 +--------------------------------------------------------------------+

           | Real       | Integer    | Character | Logical  | Double
 ----------+------------+------------+-----------+----------+----------
 Mwords    |       2.14 |       1.55 |      0.20 |     0.01 |     0.17
 Mbytes    |       8.15 |       5.91 |      0.19 |     0.04 |     1.32
 ----------+------------+------------+-----------+----------+----------


 +--------------------------------------------------------------------+
 |                  Host Memory Information (Mbytes)                  |
 +--------------------------------------------------------------------+
 |          Host           |     System     |   Allocated    |   %    |
 +-------------------------+----------------+----------------+--------+
 | ANDRIODSXX              |     65321.85   |        15.61   |   0.02 |
 +-------------------------+----------------+----------------+--------+

 ======================================================================
                     Interpolating Onto Domain "R1"
 ======================================================================

 Total Number of Nodes in the Target Domain              =        57461
 Bounding Box Volume of the Target Mesh                  =  1.42938E-04


 Checking all source domains from the source file:
   Target mesh is the same as domain "R1".

 Start direct copying of variables from domain "R1".

 +--------------------------------------------------------------------+
 |                     Variable Range Information                     |
 +--------------------------------------------------------------------+
 +--------------------------------------------------------------------+
 |      Variable Name                         |    min    |    max    |
 +--------------------------------------------------------------------+
 | Density.Beta                               |  5.92E-05 |  1.00E+00 |
 | Rothalpy.Beta                              |  3.76E-04 |  1.00E+00 |
 | Velocity in Stn Frame u.Beta               |  1.18E-04 |  1.00E+00 |
 | Velocity in Stn Frame v.Beta               |  6.44E-06 |  1.00E+00 |
 | Velocity in Stn Frame w.Beta               |  1.19E-05 |  1.00E+00 |
 | Isothermal Compressibility                 |  8.13E-06 |  1.33E-05 |
 | Thermal Conductivity                       |  2.61E-02 |  2.61E-02 |
 | Courant Number                             |  1.70E-02 |  1.30E+02 |
 | Density                                    |  3.49E-01 |  5.06E-01 |
 | Total Density in Rel Frame                 |  3.49E-01 |  5.79E-01 |
 | Total Density in Stn Frame                 |  3.58E-01 |  6.63E-01 |
 | Total Density                              |  3.04E-01 |  3.78E-01 |
 | Density Derivative wrt Pressure at Constant|  3.79E-06 |  4.73E-06 |
 | Static Enthalpy                            |  4.40E+05 |  6.23E+05 |
 | Rothalpy                                   |  4.15E+05 |  5.46E+05 |
 | Total Enthalpy in Stn Frame                |  4.47E+05 |  7.04E+05 |
 | Total Enthalpy                             |  4.40E+05 |  6.39E+05 |
 | Static Entropy                             |  9.86E+02 |  1.10E+03 |
 | Polytropic Expansion Efficiency            |  1.33E-01 |  1.00E+00 |
 | Isentropic Expansion Efficiency            |  1.37E-01 |  1.00E+00 |
 | Volume Porosity                            |  1.00E+00 |  1.00E+00 |
 | Density.Gradient                           |  1.22E-01 |  2.93E+02 |
 | Rothalpy.Gradient                          |  5.46E+04 |  4.75E+08 |
 | Pressure.Gradient                          |  1.56E+05 |  8.27E+07 |
 | Velocity u.Gradient                        |  6.48E+01 |  7.31E+05 |
 | Velocity v.Gradient                        |  1.24E+02 |  1.40E+06 |
 | Velocity w.Gradient                        |  2.42E+01 |  8.07E+05 |
 | Velocity in Stn Frame u.Gradient           |  6.48E+02 |  7.27E+05 |
 | Velocity in Stn Frame v.Gradient           |  4.09E+02 |  1.40E+06 |
 | Velocity in Stn Frame w.Gradient           |  1.50E+01 |  8.07E+05 |
 | Wall Scale.Gradient                        |  1.58E-05 |  2.44E-02 |
 | Isentropic Static Enthalpy                 |  4.48E+05 |  5.61E+05 |
 | Polytropic Static Enthalpy                 |  4.47E+05 |  5.61E+05 |
 | Mach Number in Stn Frame                   |  1.54E-01 |  8.09E-01 |
 | Mach Number                                |  1.34E-04 |  5.96E-01 |
 | Absolute Pressure                          |  7.50E+04 |  1.23E+05 |
 | Pressure                                   |  7.50E+04 |  1.23E+05 |
 | Total Pressure                             |  6.36E+04 |  8.69E+04 |
 | Total Pressure in Rel Frame                |  7.50E+04 |  1.55E+05 |
 | Total Pressure in Stn Frame                |  7.78E+04 |  1.89E+05 |
 | Real Partition Number                      |  1.00E+00 |  6.00E+00 |
 | Rotational Energy                          |  8.40E+03 |  1.53E+05 |
 | Rotation Velocity                          |  1.30E+02 |  5.54E+02 |
 | Local Speed of Sound                       |  5.44E+02 |  6.08E+02 |
 | Specific Heat Capacity at Constant Pressure|  1.00E+03 |  1.00E+03 |
 | Specific Heat Capacity at Constant Volume  |  7.17E+02 |  7.17E+02 |
 | Specific Volume                            |  1.98E+00 |  2.86E+00 |
 | First Blending Function for BSL and SST mod|  3.46E-08 |  1.00E+00 |
 | Second Blending Function for SST model     |  2.24E-02 |  1.00E+00 |
 | Shear Strain Rate                          |  3.94E+02 |  1.68E+06 |
 | Turbulence Eddy Dissipation                |  1.07E+02 |  8.94E+08 |
 | Turbulence Eddy Frequency                  |  1.08E+04 |  7.41E+06 |
 | Temperature                                |  7.36E+02 |  9.18E+02 |
 | Turbulence Kinetic Energy                  |  2.89E-04 |  1.42E+03 |
 | Total Temperature in Rel Frame             |  7.36E+02 |  9.34E+02 |
 | Total Temperature in Stn Frame             |  7.43E+02 |  9.99E+02 |
 | Total Temperature                          |  7.12E+02 |  8.42E+02 |
 | Velocity in Stn Frame                      |  8.95E+01 |  4.81E+02 |
 | Velocity                                   |  7.29E-02 |  3.53E+02 |
 | Dynamic Viscosity                          |  1.83E-05 |  1.83E-05 |
 | Eddy Viscosity                             |  2.50E-11 |  6.83E-03 |
 | Wall Distance                              |  0.00E+00 |  1.10E-02 |
 | Wall Scale                                 | -1.59E-09 |  6.29E-05 |
 +--------------------------------------------------------------------+

 ======================================================================
       Copy GGI Data Onto Domain Interface "R1 to R1 Periodic 1"
 ======================================================================

 Checking all source domain interfaces from the source file:
   Target GGI is the same as domain interface "R1 to R1 Periodic 1".

 Start direct copying of variables from domain interface "R1 to R1 Periodic 1".

 +--------------------------------------------------------------------+
 |                 CPU Requirements of Interpolation                  |
 +--------------------------------------------------------------------+

 Interpolation Step              Time    Percentage
                                (secs.   %total)
 ----------------------------------------------------------------------
 Tree Setup                     5.80E-02    3.6 %
 Interpolation                  6.19E-01   38.6 %
 Miscellaneous                  9.28E-01   57.8 %
                                --------
 Total                          1.61E+00

 +--------------------------------------------------------------------+
 |                   Job Information at End of Run                    |
 +--------------------------------------------------------------------+

 Host computer:  ANDRIODSXX (PID:12656)

 Job finished:   Thu May 11 22:51:47 2023

 Total wall clock time: 1.474E+00 seconds
             or: (          0:         0:         0:     1.474 )
                 (       Days:     Hours:   Minutes:   Seconds )

 
 +--------------------------------------------------------------------+
 |                                                                    |
 |                            Partitioning                            |
 |                                                                    |
 +--------------------------------------------------------------------+
 



 +--------------------------------------------------------------------+
 |                                                                    |
 |                     ANSYS(R) CFX(R) Partitioner                    |
 |                                                                    |
 | 2020 R2                                                            |
 | Build 20.2 2020-05-29T15:06:09.465000                              |
 | Fri May 29 17:17:43 GMTDT 2020                                     |
 |                                                                    |
 |                        Executable Attributes                       |
 |                                                                    |
 |           single-64bit-int32-archfort-optimised-std-lcomp          |
 |                                                                    |
 | (C) 1996-2020 ANSYS, Inc.                                          |
 |                                                                    |
 | All rights reserved. Unauthorized use, distribution or duplication |
 | is prohibited. This product is subject to U.S. laws governing      |
 | export and re-export. For full Legal Notice, see documentation.    |
 +--------------------------------------------------------------------+




 +--------------------------------------------------------------------+
 |                  Job Information at Start of Run                   |
 +--------------------------------------------------------------------+

 Run mode:       partitioning run

 Host computer:  ANDRIODSXX (PID:7308)

 Job started:    Thu May 11 22:51:52 2023

 +--------------------------------------------------------------------+
 |                        License Information                         |
 +--------------------------------------------------------------------+
 
 License Cap:    ANSYS CFX Solver (Max 128K Nodes)
 License Cap:     Parallel
 License ID:     AndriodSxx-Shawn-19584-015499


 +--------------------------------------------------------------------+
 |        Memory Allocated for Run  (Actual usage may be less)        |
 +--------------------------------------------------------------------+

           | Real       | Integer    | Character | Logical  | Double
 ----------+------------+------------+-----------+----------+----------
 Mwords    |       1.27 |       3.88 |      7.58 |     0.12 |     0.61
 Mbytes    |       4.84 |      14.79 |      7.23 |     0.46 |     4.66
 ----------+------------+------------+-----------+----------+----------


 +--------------------------------------------------------------------+
 |                  Host Memory Information (Mbytes)                  |
 +--------------------------------------------------------------------+
 |          Host           |     System     |   Allocated    |   %    |
 +-------------------------+----------------+----------------+--------+
 | ANDRIODSXX              |     65321.85   |        31.98   |   0.05 |
 +-------------------------+----------------+----------------+--------+

 +--------------------------------------------------------------------+
 | The MeTiS partitioning method allocates additional memory.         |
 | Total memory usage will therefore exceed the values shown above.   |
 +--------------------------------------------------------------------+

 +--------------------------------------------------------------------+
 |                      Topology Simplification                       |
 +--------------------------------------------------------------------+

 +--------------------------------------------------------------------+
 |                       ****** Warning ******                        |
 |                                                                    |
 | Topology simplification is activated with the following            |
 | restrictions:                                                      |
 |                                                                    |
 | - Mesh regions referenced only within User Fortran and NOT         |
 |   in the command file will cause the solver to stop.               |
 | - The solver will stop during any "Edit Run in Progress" step      |
 |   if new 2D regions are referenced.                                |
 +--------------------------------------------------------------------+

 +--------------------------------------------------------------------+
 |                          Mesh Statistics                           |
 +--------------------------------------------------------------------+

 Domain Name : R1

     Total Number of Nodes                                =       57461

     Total Number of Elements                             =       50904
         Total Number of Hexahedrons                      =       50904

     Total Number of Faces                                =       12836

 Domain Interface Name : R1 to R1 Periodic 1

     Discretization type                                  =         1:1

 +--------------------------------------------------------------------+
 |                     Vertex Based Partitioning                      |
 +--------------------------------------------------------------------+

 Partitioning of domain: R1

 - Partitioning tool:       MeTiS multilevel k-way algorithm
 - Number of partitions:             6
 - Number of graph-nodes:        55056
 - Number of graph-edges:       321958

 +--------------------------------------------------------------------+
 |                 Iso-Partition Connection Statistics                |
 +--------------------------------------------------------------------+
 | Domains in Group          |        |           Vertices            |
 |                           | Smooth +---------+----------+----------+
 |                           | Sweeps |  Moves  |   <25%   |   <50%   |
 +---------------------------+--------+---------+----------+----------+
 | R1                        |     5  |      40 |       0  |       0  |
 +---------------------------+--------+---------+----------+----------+

 +--------------------------------------------------------------------+
 |                      Partitioning Information                      |
 +--------------------------------------------------------------------+

 Partitioning information for domain: R1

        +------------------+------------------------+-----------------+
        |     Elements     |        Vertices        |     Faces       |
 +------+------------------+------------------------+-----------------+
 | Part |   Number     %   |   Number     %   %Ovlp |  Number     %   |
 +------+------------------+------------------------+-----------------+
 | Full |     50904        |     57461              |    12836        |
 +------+------------------+------------------------+-----------------+
 |    1 |      9203   16.9 |     11071   16.8  12.0 |     2346   17.2 |
 |    2 |      8737   16.0 |     10441   15.9   8.3 |     2465   18.1 |
 |    3 |      9198   16.8 |     11198   17.0  14.0 |     2357   17.3 |
 |    4 |      9313   17.1 |     11481   17.5  18.6 |     2148   15.8 |
 |    5 |      9004   16.5 |     10634   16.2  10.9 |     2048   15.1 |
 |    6 |      9143   16.7 |     10908   16.6  11.1 |     2243   16.5 |
 +------+------------------+------------------------+-----------------+
 | Min  |      8737   16.0 |     10441   15.9   8.3 |     2048   15.1 |
 |(part)|           (    2)|           (    2     2)|          (    5)|
 +------+------------------+------------------------+-----------------+
 | Max  |      9313   17.1 |     11481   17.5  18.6 |     2465   18.1 |
 |(part)|           (    4)|           (    4     4)|          (    2)|
 +------+------------------+------------------------+-----------------+
 | Ave  |      9100   16.7 |     10956   16.7  12.5 |     2268   16.7 |
 +------+------------------+------------------------+-----------------+
 | Sum  |     54598  100.0 |     65733  100.0       |    13607  100.0 |
 +------+------------------+------------------------+-----------------+

 +--------------------------------------------------------------------+
 |                 Partitioning CPU-Time Requirements                 |
 +--------------------------------------------------------------------+
 Preparations                   1.00E-02    0.4 %
 Low-level Mesh Partitioning    1.50E-02    0.6 %
 File Reading                   1.50E-02    0.6 %
 Partition Smoothing            9.00E-03    0.4 %
 Topology - Global              1.00E-03    0.0 %
 Topology - Element/Face/Patch  3.00E-03    0.1 %
 Topology - Vertex              1.00E-03    0.0 %
 Variable Updates               1.00E-03    0.0 %
 File Writing                   2.70E-02    1.1 %
 Miscellaneous                  2.42E+00   96.7 %
                                --------
 Total                          2.50E+00

 +--------------------------------------------------------------------+
 |                   Job Information at End of Run                    |
 +--------------------------------------------------------------------+

 Host computer:  ANDRIODSXX (PID:7308)

 Job finished:   Thu May 11 22:51:54 2023

 Total wall clock time: 2.384E+00 seconds
             or: (          0:         0:         0:     2.384 )
                 (       Days:     Hours:   Minutes:   Seconds )

 
 +--------------------------------------------------------------------+
 |                                                                    |
 |                               Solver                               |
 |                                                                    |
 +--------------------------------------------------------------------+
 



 +--------------------------------------------------------------------+
 |                                                                    |
 |                       ANSYS(R) CFX(R) Solver                       |
 |                                                                    |
 | 2020 R2                                                            |
 | Build 20.2 2020-05-29T15:06:09.465000                              |
 | Fri May 29 17:17:43 GMTDT 2020                                     |
 |                                                                    |
 |                        Executable Attributes                       |
 |                                                                    |
 |           single-64bit-int32-archfort-optimised-std-lcomp          |
 |                                                                    |
 | (C) 1996-2020 ANSYS, Inc.                                          |
 |                                                                    |
 | All rights reserved. Unauthorized use, distribution or duplication |
 | is prohibited. This product is subject to U.S. laws governing      |
 | export and re-export. For full Legal Notice, see documentation.    |
 +--------------------------------------------------------------------+




 +--------------------------------------------------------------------+
 |                  Job Information at Start of Run                   |
 +--------------------------------------------------------------------+

 Run mode:       parallel run (MPI)

 Job started:    Thu May 11 22:51:55 2023

 +--------------------------------------------------------------------+
 |                        License Information                         |
 +--------------------------------------------------------------------+
 
 License Cap:    ANSYS CFX Solver (Max 128K Nodes)
 License Cap:     Parallel
 License ID:     AndriodSxx-Shawn-19584-015524


 +--------------------------------------------------------------------+
 |        Memory Allocated for Run  (Actual usage may be less)        |
 +--------------------------------------------------------------------+

 Allocated storage in:    Mwords
                          Mbytes

 Partition | Real       | Integer    | Character | Logical  | Double
 ----------+------------+------------+-----------+----------+----------
   Minimum |      19.57 |       2.14 |      8.03 |     0.12 |     0.62
  (     4) |      74.64 |       8.16 |      7.66 |     0.11 |     4.72
 ----------+------------+------------+-----------+----------+----------
   Maximum |      19.72 |       2.17 |      8.03 |     0.12 |     0.62
  (     1) |      75.24 |       8.28 |      7.66 |     0.11 |     4.72
 ----------+------------+------------+-----------+----------+----------
   Average |      19.66 |       2.16 |      8.03 |     0.12 |     0.62
           |      74.98 |       8.23 |      7.66 |     0.11 |     4.72
 ----------+------------+------------+-----------+----------+----------
     Total |     117.94 |      12.94 |     48.18 |     0.72 |     3.71
           |     449.89 |      49.37 |     45.94 |     0.69 |    28.33
 ----------+------------+------------+-----------+----------+----------


 +--------------------------------------------------------------------+
 |                  Host Memory Information (Mbytes)                  |
 +--------------------------------------------------------------------+
 |           Host         | Npart |   System    |  Allocated  |   %   |
 +------------------------+-------+-------------+-------------+-------+
 | ANDRIODSXX             |    6  |    65321.85 |      574.22 |  0.88 |
 +------------------------+-------+-------------+-------------+-------+


 +--------------------------------------------------------------------+
 |                     ****** Notice ******                           |
 | The Wall Heat Transfer Coefficient written to the results file for |
 | any turbulent phase with heat transfer is based on the turbulent   |
 | wall function coefficient. It is consistent with the Wall Heat Flux|
 | the wall temperature, and the Wall Adjacent Temperature            |
 | (near-wall temperature).  If you would like it to be based on a    |
 | user-specified bulk temperature instead, please set the expert     |
 | parameter "tbulk for htc = <value>".                               |
 +--------------------------------------------------------------------+

 +--------------------------------------------------------------------+
 |                      Topology Simplification                       |
 +--------------------------------------------------------------------+

 +--------------------------------------------------------------------+
 |                       ****** Warning ******                        |
 |                                                                    |
 | Topology simplification is activated with the following            |
 | restrictions:                                                      |
 |                                                                    |
 | - Mesh regions referenced only within User Fortran and NOT         |
 |   in the command file will cause the solver to stop.               |
 | - The solver will stop during any "Edit Run in Progress" step      |
 |   if new 2D regions are referenced.                                |
 +--------------------------------------------------------------------+

 +--------------------------------------------------------------------+
 |                          Mesh Statistics                           |
 +--------------------------------------------------------------------+
 | Domain Name          | Orthog. Angle | Exp. Factor  | Aspect Ratio |
 +----------------------+---------------+--------------+--------------+
 |                      | Minimum [deg] |   Maximum    |    Maximum   |
 +----------------------+---------------+--------------+--------------+
 | R1                   |       39.6 ok |        10 ok |       135 ok |
 +----------------------+---------------+--------------+--------------+
 |                      |  %!  %ok  %OK | %!  %ok  %OK | %!  %ok  %OK |
 +----------------------+---------------+--------------+--------------+
 | R1                   |   0    2   98 |  0   <1  100 |  0    1   99 |
 +----------------------+---------------+--------------+--------------+

 Domain Name : R1

     Total Number of Nodes                                =       57461

     Total Number of Elements                             =       50904
         Total Number of Hexahedrons                      =       50904

     Total Number of Faces                                =       12836

 Domain Interface Name : R1 to R1 Periodic 1

     Discretization type                                  =         1:1

 +--------------------------------------------------------------------+
 |                  User Defined Monitor Information                  |
 +--------------------------------------------------------------------+

 Monitor Point: MP TFP

 Monitor Point: MP PR

 Monitor Point: MP Etats

 +--------------------------------------------------------------------+
 |      Initial Conditions Supplied by Fields in the Input Files      |
 +--------------------------------------------------------------------+

 Domain Name : R1
     Absolute Pressure
     Courant Number
     Density
     Density Derivative wrt Pressure at Constant Temperature
     Density.Beta
     Density.Gradient
     Eddy Viscosity
     First Blending Function for BSL and SST model
     Isentropic Expansion Efficiency
     Isentropic Static Enthalpy
     Isothermal Compressibility
     Local Speed of Sound
     Mach Number
     Mach Number in Stn Frame
     Polytropic Expansion Efficiency
     Polytropic Static Enthalpy
     Pressure
     Pressure.Gradient
     Real Partition Number
     Rotation Velocity
     Rotational Energy
     Rothalpy
     Rothalpy.Gradient
     Second Blending Function for SST model
     Shear Strain Rate
     Specific Heat Capacity at Constant Volume
     Specific Volume
     Static Enthalpy
     Static Entropy
     Temperature
     Total Density
     Total Density in Rel Frame
     Total Density in Stn Frame
     Total Enthalpy
     Total Enthalpy in Stn Frame
     Total Pressure
     Total Pressure in Rel Frame
     Total Pressure in Stn Frame
     Total Temperature
     Total Temperature in Rel Frame
     Total Temperature in Stn Frame
     Turbulence Eddy Dissipation
     Turbulence Eddy Frequency
     Turbulence Kinetic Energy
     Velocity
     Velocity in Stn Frame
     Velocity in Stn Frame.Beta
     Velocity in Stn Frame.Gradient
     Velocity.Gradient
     Wall Distance
     Wall Scale
     Wall Scale.Gradient

 +--------------------------------------------------------------------+
 |                     Average Scale Information                      |
 +--------------------------------------------------------------------+

 Domain Name : R1
     Global Length                                         = 2.9068E-02
     Minimum Extent                                        = 4.8524E-02
     Maximum Extent                                        = 6.0006E-02
     Density                                               = 4.0960E-01
     Dynamic Viscosity                                     = 1.8310E-05
     Velocity                                              = 9.8421E+01
     Advection Time                                        = 2.9534E-04
     Reynolds Number                                       = 6.3999E+04
     Speed of Sound                                        = 5.6749E+02
     Mach Number                                           = 1.7343E-01
     Thermal Conductivity                                  = 2.6100E-02
     Specific Heat Capacity at Constant Pressure           = 1.0044E+03
     Specific Heat Capacity at Constant Volume             = 7.1730E+02
     Specific Heat Ratio                                   = 1.4003E+00
     Prandtl Number                                        = 7.0462E-01
     Temperature Range                                     = 1.8249E+02

 +--------------------------------------------------------------------+
 |                Checking for Isolated Fluid Regions                 |
 +--------------------------------------------------------------------+
 
 No isolated fluid regions were found.

 +--------------------------------------------------------------------+
 |              The Equations Solved in This Calculation              |
 +--------------------------------------------------------------------+

 Subsystem : Momentum and Mass

   U-Mom
   V-Mom
   W-Mom
   P-Mass

 Subsystem : Heat Transfer

   H-Energy

 Subsystem : TurbKE and TurbFreq

   K-TurbKE
   O-TurbFreq
                   
 CFD Solver started: Thu May 11 22:51:59 2023


 +--------------------------------------------------------------------+
 |                       Convergence History                          |
 +--------------------------------------------------------------------+

 ======================================================================
 |                        Timescale Information                       |
 ----------------------------------------------------------------------
 |       Equation       |         Type          |      Timescale      |
 +----------------------+-----------------------+---------------------+
 | U-Mom                | Auto Timescale        |     1.08333E-05     |
 | V-Mom                | Auto Timescale        |     1.08333E-05     |
 | W-Mom                | Auto Timescale        |     1.08333E-05     |
 | P-Mass               | Auto Timescale        |     1.08333E-05     |
 +----------------------+-----------------------+---------------------+
 | H-Energy             | Auto Timescale        |     1.08333E-05     |
 +----------------------+-----------------------+---------------------+
 | K-TurbKE             | Auto Timescale        |     1.08333E-05     |
 | O-TurbFreq           | Auto Timescale        |     1.08333E-05     |
 +----------------------+-----------------------+---------------------+

 ======================================================================
 OUTER LOOP ITERATION =  601 (    1) CPU SECONDS = 1.187E+03 (2.847E+01)
 ----------------------------------------------------------------------
 |       Equation       | Rate | RMS Res | Max Res |  Linear Solution |
 +----------------------+------+---------+---------+------------------+
 | U-Mom                | 1.00 | 2.5E-04 | 1.0E-02 |       8.3E-04  OK|
 | V-Mom                | 0.97 | 1.6E-04 | 5.6E-03 |       1.2E-03  OK|
 | W-Mom                | 1.03 | 3.1E-04 | 4.5E-03 |       9.1E-04  OK|
 | P-Mass               | 0.97 | 3.0E-07 | 7.1E-06 |  9.6  8.8E-02  OK|
 +--------------------------------------------------------------------+
 |                     ****** Notice ******                           |
 |  A wall has been placed at portion(s) of an INLET                  |
 |  boundary condition (at  94.4% of the faces,  99.4% of the area)   |
 |  to prevent fluid from flowing out of the domain.                  |
 |  The boundary condition name is: R1 Inlet.                         |
 |  The fluid name is: Air Ideal Gas.                                 |
 |  If this situation persists, consider switching                    |
 |  to an Opening type boundary condition instead.                    |
 +--------------------------------------------------------------------+
 +--------------------------------------------------------------------+
 |                     ****** Notice ******                           |
 |  A wall has been placed at portion(s) of an OUTLET                 |
 |  boundary condition (at 100.0% of the faces, 100.0% of the area)   |
 |  to prevent fluid from flowing into the domain.                    |
 |  The boundary condition name is: R1 Outlet.                        |
 |  The fluid name is: Air Ideal Gas.                                 |
 |  If this situation persists, consider switching                    |
 |  to an Opening type boundary condition instead.                    |
 +--------------------------------------------------------------------+
 +----------------------+------+---------+---------+------------------+
 | H-Energy             | 1.00 | 3.7E-04 | 4.2E-03 |  5.8  2.9E-02  OK|
 +----------------------+------+---------+---------+------------------+
 | K-TurbKE             | 0.99 | 2.0E-04 | 3.3E-03 |  5.8  1.1E-02  OK|
 | O-TurbFreq           | 0.99 | 5.3E-05 | 2.3E-03 |  7.2  1.4E-02  OK|
 +----------------------+------+---------+---------+------------------+

 ======================================================================
 OUTER LOOP ITERATION =  602 (    2) CPU SECONDS = 1.189E+03 (3.051E+01)
 ----------------------------------------------------------------------
 |       Equation       | Rate | RMS Res | Max Res |  Linear Solution |
 +----------------------+------+---------+---------+------------------+
 | U-Mom                | 1.65 | 4.2E-04 | 2.5E-02 |       6.4E-03  OK|
 | V-Mom                | 1.09 | 1.8E-04 | 7.9E-03 |       7.6E-03  OK|
 | W-Mom                | 1.03 | 3.2E-04 | 4.8E-03 |       2.7E-02  OK|
 | P-Mass               | 9.35 | 2.8E-06 | 1.1E-04 |  9.6  8.5E-02  OK|
 +--------------------------------------------------------------------+
 |                     ****** Notice ******                           |
 |  A wall has been placed at portion(s) of an INLET                  |
 |  boundary condition (at  94.4% of the faces,  99.4% of the area)   |
 |  to prevent fluid from flowing out of the domain.                  |
 |  The boundary condition name is: R1 Inlet.                         |
 |  The fluid name is: Air Ideal Gas.                                 |
 |  If this situation persists, consider switching                    |
 |  to an Opening type boundary condition instead.                    |
 +--------------------------------------------------------------------+
 +--------------------------------------------------------------------+
 |                     ****** Notice ******                           |
 |  A wall has been placed at portion(s) of an OUTLET                 |
 |  boundary condition (at 100.0% of the faces, 100.0% of the area)   |
 |  to prevent fluid from flowing into the domain.                    |
 |  The boundary condition name is: R1 Outlet.                        |
 |  The fluid name is: Air Ideal Gas.                                 |
 |  If this situation persists, consider switching                    |
 |  to an Opening type boundary condition instead.                    |
 +--------------------------------------------------------------------+
 +----------------------+------+---------+---------+------------------+
 | H-Energy             | 1.01 | 3.7E-04 | 4.9E-03 |  5.8  2.8E-02  OK|
 +----------------------+------+---------+---------+------------------+
 | K-TurbKE             | 1.63 | 3.2E-04 | 2.4E-02 |  5.8  7.4E-03  OK|
 | O-TurbFreq           | 2.22 | 1.2E-04 | 1.3E-02 |  7.2  4.8E-03  OK|
 +----------------------+------+---------+---------+------------------+

 ======================================================================
 OUTER LOOP ITERATION =  603 (    3) CPU SECONDS = 1.191E+03 (3.245E+01)
 ----------------------------------------------------------------------
 |       Equation       | Rate | RMS Res | Max Res |  Linear Solution |
 +----------------------+------+---------+---------+------------------+
 | U-Mom                | 0.75 | 3.1E-04 | 1.7E-02 |       8.5E-03  OK|
 | V-Mom                | 1.42 | 2.5E-04 | 1.6E-02 |       4.9E-03  OK|
 | W-Mom                | 1.01 | 3.2E-04 | 5.0E-03 |       8.8E-03  OK|
 | P-Mass               | 0.45 | 1.2E-06 | 7.3E-05 |  9.6  7.6E-02  OK|
 +--------------------------------------------------------------------+
 |                     ****** Notice ******                           |
 |  A wall has been placed at portion(s) of an INLET                  |
 |  boundary condition (at  94.4% of the faces,  99.4% of the area)   |
 |  to prevent fluid from flowing out of the domain.                  |
 |  The boundary condition name is: R1 Inlet.                         |
 |  The fluid name is: Air Ideal Gas.                                 |
 |  If this situation persists, consider switching                    |
 |  to an Opening type boundary condition instead.                    |
 +--------------------------------------------------------------------+
 +--------------------------------------------------------------------+
 |                     ****** Notice ******                           |
 |  A wall has been placed at portion(s) of an OUTLET                 |
 |  boundary condition (at 100.0% of the faces, 100.0% of the area)   |
 |  to prevent fluid from flowing into the domain.                    |
 |  The boundary condition name is: R1 Outlet.                        |
 |  The fluid name is: Air Ideal Gas.                                 |
 |  If this situation persists, consider switching                    |
 |  to an Opening type boundary condition instead.                    |
 +--------------------------------------------------------------------+
 +----------------------+------+---------+---------+------------------+
 | H-Energy             | 0.99 | 3.7E-04 | 4.6E-03 |  5.8  2.8E-02  OK|
 +----------------------+------+---------+---------+------------------+
 | K-TurbKE             | 1.96 | 6.4E-04 | 5.1E-02 |  5.8  8.9E-03  OK|
 | O-TurbFreq           | 1.75 | 2.1E-04 | 1.1E-02 |  7.2  6.6E-03  OK|
 +----------------------+------+---------+---------+------------------+

 ======================================================================
 OUTER LOOP ITERATION =  604 (    4) CPU SECONDS = 1.193E+03 (3.431E+01)
 ----------------------------------------------------------------------
 |       Equation       | Rate | RMS Res | Max Res |  Linear Solution |
 +----------------------+------+---------+---------+------------------+
 | U-Mom                | 0.93 | 2.9E-04 | 1.3E-02 |       6.7E-03  OK|
 | V-Mom                | 0.88 | 2.2E-04 | 7.8E-03 |       4.7E-03  OK|
 | W-Mom                | 1.00 | 3.2E-04 | 5.2E-03 |       7.4E-03  OK|
 | P-Mass               | 0.76 | 9.4E-07 | 3.1E-05 |  9.6  8.1E-02  OK|
 +--------------------------------------------------------------------+
 |                     ****** Notice ******                           |
 |  A wall has been placed at portion(s) of an INLET                  |
 |  boundary condition (at  94.4% of the faces,  99.4% of the area)   |
 |  to prevent fluid from flowing out of the domain.                  |
 |  The boundary condition name is: R1 Inlet.                         |
 |  The fluid name is: Air Ideal Gas.                                 |
 |  If this situation persists, consider switching                    |
 |  to an Opening type boundary condition instead.                    |
 +--------------------------------------------------------------------+
 +--------------------------------------------------------------------+
 |                     ****** Notice ******                           |
 |  A wall has been placed at portion(s) of an OUTLET                 |
 |  boundary condition (at 100.0% of the faces, 100.0% of the area)   |
 |  to prevent fluid from flowing into the domain.                    |
 |  The boundary condition name is: R1 Outlet.                        |
 |  The fluid name is: Air Ideal Gas.                                 |
 |  If this situation persists, consider switching                    |
 |  to an Opening type boundary condition instead.                    |
 +--------------------------------------------------------------------+
 +----------------------+------+---------+---------+------------------+
 | H-Energy             | 1.00 | 3.7E-04 | 4.7E-03 |  5.8  2.7E-02  OK|
 +----------------------+------+---------+---------+------------------+
 | K-TurbKE             | 1.00 | 6.4E-04 | 4.4E-02 |  5.8  1.2E-02  OK|
 | O-TurbFreq           | 0.97 | 2.0E-04 | 1.1E-02 |  7.2  8.7E-03  OK|
 +----------------------+------+---------+---------+------------------+

 ======================================================================
 OUTER LOOP ITERATION =  605 (    5) CPU SECONDS = 1.195E+03 (3.613E+01)
 ----------------------------------------------------------------------
 |       Equation       | Rate | RMS Res | Max Res |  Linear Solution |
 +----------------------+------+---------+---------+------------------+
 | U-Mom                | 0.95 | 2.8E-04 | 9.2E-03 |       1.2E-03  OK|
 | V-Mom                | 0.90 | 2.0E-04 | 5.9E-03 |       2.0E-03  OK|
 | W-Mom                | 0.99 | 3.2E-04 | 5.3E-03 |       4.0E-03  OK|
 | P-Mass               | 0.90 | 8.5E-07 | 1.9E-05 | 13.9  6.0E-02  OK|
 +--------------------------------------------------------------------+
 |                     ****** Notice ******                           |
 |  A wall has been placed at portion(s) of an INLET                  |
 |  boundary condition (at  94.4% of the faces,  99.4% of the area)   |
 |  to prevent fluid from flowing out of the domain.                  |
 |  The boundary condition name is: R1 Inlet.                         |
 |  The fluid name is: Air Ideal Gas.                                 |
 |  If this situation persists, consider switching                    |
 |  to an Opening type boundary condition instead.                    |
 +--------------------------------------------------------------------+
 +--------------------------------------------------------------------+
 |                     ****** Notice ******                           |
 |  A wall has been placed at portion(s) of an OUTLET                 |
 |  boundary condition (at 100.0% of the faces, 100.0% of the area)   |
 |  to prevent fluid from flowing into the domain.                    |
 |  The boundary condition name is: R1 Outlet.                        |
 |  The fluid name is: Air Ideal Gas.                                 |
 |  If this situation persists, consider switching                    |
 |  to an Opening type boundary condition instead.                    |
 +--------------------------------------------------------------------+
 +----------------------+------+---------+---------+------------------+
 | H-Energy             | 0.99 | 3.6E-04 | 4.2E-03 |  5.8  2.7E-02  OK|
 +----------------------+------+---------+---------+------------------+
 | K-TurbKE             | 0.92 | 5.9E-04 | 3.3E-02 |  5.8  1.4E-02  OK|
 | O-TurbFreq           | 0.82 | 1.6E-04 | 8.2E-03 |  7.2  1.0E-02  OK|
 +----------------------+------+---------+---------+------------------+

 ======================================================================
 |                        Timescale Information                       |
 ----------------------------------------------------------------------
 |       Equation       |         Type          |      Timescale      |
 +----------------------+-----------------------+---------------------+
 | U-Mom                | Auto Timescale        |     1.08333E-05     |
 | V-Mom                | Auto Timescale        |     1.08333E-05     |
 | W-Mom                | Auto Timescale        |     1.08333E-05     |
 | P-Mass               | Auto Timescale        |     1.08333E-05     |
 +----------------------+-----------------------+---------------------+
 | H-Energy             | Auto Timescale        |     1.08333E-05     |
 +----------------------+-----------------------+---------------------+
 | K-TurbKE             | Auto Timescale        |     1.08333E-05     |
 | O-TurbFreq           | Auto Timescale        |     1.08333E-05     |
 +----------------------+-----------------------+---------------------+

 ======================================================================
 OUTER LOOP ITERATION =  606 (    6) CPU SECONDS = 1.197E+03 (3.800E+01)
 ----------------------------------------------------------------------
 |       Equation       | Rate | RMS Res | Max Res |  Linear Solution |
 +----------------------+------+---------+---------+------------------+
 | U-Mom                | 0.94 | 2.6E-04 | 7.6E-03 |       1.1E-03  OK|
 | V-Mom                | 0.95 | 1.9E-04 | 3.7E-03 |       2.0E-03  OK|
 | W-Mom                | 0.99 | 3.2E-04 | 5.1E-03 |       4.7E-03  OK|
 | P-Mass               | 1.01 | 8.6E-07 | 1.4E-05 | 13.9  6.8E-02  OK|
 +--------------------------------------------------------------------+
 |                     ****** Notice ******                           |
 |  A wall has been placed at portion(s) of an INLET                  |
 |  boundary condition (at  94.4% of the faces,  99.4% of the area)   |
 |  to prevent fluid from flowing out of the domain.                  |
 |  The boundary condition name is: R1 Inlet.                         |
 |  The fluid name is: Air Ideal Gas.                                 |
 |  If this situation persists, consider switching                    |
 |  to an Opening type boundary condition instead.                    |
 +--------------------------------------------------------------------+
 +--------------------------------------------------------------------+
 |                     ****** Notice ******                           |
 |  A wall has been placed at portion(s) of an OUTLET                 |
 |  boundary condition (at 100.0% of the faces, 100.0% of the area)   |
 |  to prevent fluid from flowing into the domain.                    |
 |  The boundary condition name is: R1 Outlet.                        |
 |  The fluid name is: Air Ideal Gas.                                 |
 |  If this situation persists, consider switching                    |
 |  to an Opening type boundary condition instead.                    |
 +--------------------------------------------------------------------+
 +----------------------+------+---------+---------+------------------+
 | H-Energy             | 1.00 | 3.6E-04 | 3.7E-03 |  5.8  2.7E-02  OK|
 +----------------------+------+---------+---------+------------------+
 | K-TurbKE             | 0.85 | 5.0E-04 | 2.4E-02 |  5.8  1.5E-02  OK|
 | O-TurbFreq           | 0.79 | 1.3E-04 | 5.7E-03 |  7.2  1.2E-02  OK|
 +----------------------+------+---------+---------+------------------+

 ======================================================================
 OUTER LOOP ITERATION =  607 (    7) CPU SECONDS = 1.198E+03 (3.990E+01)
 ----------------------------------------------------------------------
 |       Equation       | Rate | RMS Res | Max Res |  Linear Solution |
 +----------------------+------+---------+---------+------------------+
 | U-Mom                | 0.93 | 2.4E-04 | 7.6E-03 |       1.0E-03  OK|
 | V-Mom                | 1.00 | 1.9E-04 | 4.0E-03 |       1.6E-03  OK|
 | W-Mom                | 0.98 | 3.1E-04 | 4.8E-03 |       4.3E-03  OK|
 | P-Mass               | 0.98 | 8.4E-07 | 1.2E-05 | 13.9  5.9E-02  OK|
 +--------------------------------------------------------------------+
 |                     ****** Notice ******                           |
 |  A wall has been placed at portion(s) of an INLET                  |
 |  boundary condition (at  94.4% of the faces,  99.4% of the area)   |
 |  to prevent fluid from flowing out of the domain.                  |
 |  The boundary condition name is: R1 Inlet.                         |
 |  The fluid name is: Air Ideal Gas.                                 |
 |  If this situation persists, consider switching                    |
 |  to an Opening type boundary condition instead.                    |
 +--------------------------------------------------------------------+
 +--------------------------------------------------------------------+
 |                     ****** Notice ******                           |
 |  A wall has been placed at portion(s) of an OUTLET                 |
 |  boundary condition (at 100.0% of the faces, 100.0% of the area)   |
 |  to prevent fluid from flowing into the domain.                    |
 |  The boundary condition name is: R1 Outlet.                        |
 |  The fluid name is: Air Ideal Gas.                                 |
 |  If this situation persists, consider switching                    |
 |  to an Opening type boundary condition instead.                    |
 +--------------------------------------------------------------------+
 +----------------------+------+---------+---------+------------------+
 | H-Energy             | 1.00 | 3.6E-04 | 3.5E-03 |  5.8  2.7E-02  OK|
 +----------------------+------+---------+---------+------------------+
 | K-TurbKE             | 0.81 | 4.0E-04 | 1.7E-02 |  5.8  1.6E-02  OK|
 | O-TurbFreq           | 0.80 | 1.0E-04 | 3.9E-03 |  7.2  1.3E-02  OK|
 +----------------------+------+---------+---------+------------------+

 ======================================================================
 OUTER LOOP ITERATION =  608 (    8) CPU SECONDS = 1.200E+03 (4.172E+01)
 ----------------------------------------------------------------------
 |       Equation       | Rate | RMS Res | Max Res |  Linear Solution |
 +----------------------+------+---------+---------+------------------+
 | U-Mom                | 0.93 | 2.3E-04 | 7.4E-03 |       3.5E-03  OK|
 | V-Mom                | 1.03 | 2.0E-04 | 4.8E-03 |       4.6E-03  OK|
 | W-Mom                | 0.98 | 3.1E-04 | 4.3E-03 |       6.6E-03  OK|
 | P-Mass               | 0.96 | 8.1E-07 | 1.3E-05 |  9.6  8.5E-02  OK|
 +--------------------------------------------------------------------+
 |                     ****** Notice ******                           |
 |  A wall has been placed at portion(s) of an INLET                  |
 |  boundary condition (at  94.4% of the faces,  99.4% of the area)   |
 |  to prevent fluid from flowing out of the domain.                  |
 |  The boundary condition name is: R1 Inlet.                         |
 |  The fluid name is: Air Ideal Gas.                                 |
 |  If this situation persists, consider switching                    |
 |  to an Opening type boundary condition instead.                    |
 +--------------------------------------------------------------------+
 +--------------------------------------------------------------------+
 |                     ****** Notice ******                           |
 |  A wall has been placed at portion(s) of an OUTLET                 |
 |  boundary condition (at 100.0% of the faces, 100.0% of the area)   |
 |  to prevent fluid from flowing into the domain.                    |
 |  The boundary condition name is: R1 Outlet.                        |
 |  The fluid name is: Air Ideal Gas.                                 |
 |  If this situation persists, consider switching                    |
 |  to an Opening type boundary condition instead.                    |
 +--------------------------------------------------------------------+
 +----------------------+------+---------+---------+------------------+
 | H-Energy             | 1.00 | 3.6E-04 | 2.8E-03 |  5.8  2.7E-02  OK|
 +----------------------+------+---------+---------+------------------+
 | K-TurbKE             | 0.80 | 3.2E-04 | 1.0E-02 |  5.8  1.7E-02  OK|
 | O-TurbFreq           | 0.84 | 8.7E-05 | 3.1E-03 |  7.2  1.5E-02  OK|
 +----------------------+------+---------+---------+------------------+

 ======================================================================
 OUTER LOOP ITERATION =  609 (    9) CPU SECONDS = 1.202E+03 (4.351E+01)
 ----------------------------------------------------------------------
 |       Equation       | Rate | RMS Res | Max Res |  Linear Solution |
 +----------------------+------+---------+---------+------------------+
 | U-Mom                | 0.92 | 2.1E-04 | 6.9E-03 |       3.7E-03  OK|
 | V-Mom                | 1.04 | 2.0E-04 | 5.5E-03 |       4.3E-03  OK|
 | W-Mom                | 0.98 | 3.0E-04 | 4.2E-03 |       5.6E-03  OK|
 | P-Mass               | 0.93 | 7.6E-07 | 1.1E-05 |  9.6  8.2E-02  OK|
 +--------------------------------------------------------------------+
 |                     ****** Notice ******                           |
 |  A wall has been placed at portion(s) of an INLET                  |
 |  boundary condition (at  94.4% of the faces,  99.4% of the area)   |
 |  to prevent fluid from flowing out of the domain.                  |
 |  The boundary condition name is: R1 Inlet.                         |
 |  The fluid name is: Air Ideal Gas.                                 |
 |  If this situation persists, consider switching                    |
 |  to an Opening type boundary condition instead.                    |
 +--------------------------------------------------------------------+
 +--------------------------------------------------------------------+
 |                     ****** Notice ******                           |
 |  A wall has been placed at portion(s) of an OUTLET                 |
 |  boundary condition (at 100.0% of the faces, 100.0% of the area)   |
 |  to prevent fluid from flowing into the domain.                    |
 |  The boundary condition name is: R1 Outlet.                        |
 |  The fluid name is: Air Ideal Gas.                                 |
 |  If this situation persists, consider switching                    |
 |  to an Opening type boundary condition instead.                    |
 +--------------------------------------------------------------------+
 +----------------------+------+---------+---------+------------------+
 | H-Energy             | 1.00 | 3.6E-04 | 3.2E-03 |  5.8  2.7E-02  OK|
 +----------------------+------+---------+---------+------------------+
 | K-TurbKE             | 0.84 | 2.7E-04 | 6.0E-03 |  5.8  1.8E-02  OK|
 | O-TurbFreq           | 0.87 | 7.6E-05 | 2.4E-03 |  7.2  1.7E-02  OK|
 +----------------------+------+---------+---------+------------------+

 ======================================================================
 OUTER LOOP ITERATION =  610 (   10) CPU SECONDS = 1.204E+03 (4.563E+01)
 ----------------------------------------------------------------------
 |       Equation       | Rate | RMS Res | Max Res |  Linear Solution |
 +----------------------+------+---------+---------+------------------+
 | U-Mom                | 0.93 | 1.9E-04 | 6.2E-03 |       3.8E-03  OK|
 | V-Mom                | 1.03 | 2.1E-04 | 6.0E-03 |       4.2E-03  OK|
 | W-Mom                | 0.98 | 2.9E-04 | 4.0E-03 |       5.1E-03  OK|
 | P-Mass               | 0.93 | 7.0E-07 | 8.5E-06 |  9.6  8.7E-02  OK|
 +--------------------------------------------------------------------+
 |                     ****** Notice ******                           |
 |  A wall has been placed at portion(s) of an INLET                  |
 |  boundary condition (at  94.4% of the faces,  99.4% of the area)   |
 |  to prevent fluid from flowing out of the domain.                  |
 |  The boundary condition name is: R1 Inlet.                         |
 |  The fluid name is: Air Ideal Gas.                                 |
 |  If this situation persists, consider switching                    |
 |  to an Opening type boundary condition instead.                    |
 +--------------------------------------------------------------------+
 +--------------------------------------------------------------------+
 |                     ****** Notice ******                           |
 |  A wall has been placed at portion(s) of an OUTLET                 |
 |  boundary condition (at 100.0% of the faces, 100.0% of the area)   |
 |  to prevent fluid from flowing into the domain.                    |
 |  The boundary condition name is: R1 Outlet.                        |
 |  The fluid name is: Air Ideal Gas.                                 |
 |  If this situation persists, consider switching                    |
 |  to an Opening type boundary condition instead.                    |
 +--------------------------------------------------------------------+
 +----------------------+------+---------+---------+------------------+
 | H-Energy             | 1.00 | 3.6E-04 | 3.6E-03 |  5.8  2.7E-02  OK|
 +----------------------+------+---------+---------+------------------+
 | K-TurbKE             | 0.89 | 2.4E-04 | 4.4E-03 |  5.8  1.9E-02  OK|
 | O-TurbFreq           | 0.90 | 6.8E-05 | 2.0E-03 |  7.2  1.8E-02  OK|
 +----------------------+------+---------+---------+------------------+

 ======================================================================
 |                        Timescale Information                       |
 ----------------------------------------------------------------------
 |       Equation       |         Type          |      Timescale      |
 +----------------------+-----------------------+---------------------+
 | U-Mom                | Auto Timescale        |     1.08333E-05     |
 | V-Mom                | Auto Timescale        |     1.08333E-05     |
 | W-Mom                | Auto Timescale        |     1.08333E-05     |
 | P-Mass               | Auto Timescale        |     1.08333E-05     |
 +----------------------+-----------------------+---------------------+
 | H-Energy             | Auto Timescale        |     1.08333E-05     |
 +----------------------+-----------------------+---------------------+
 | K-TurbKE             | Auto Timescale        |     1.08333E-05     |
 | O-TurbFreq           | Auto Timescale        |     1.08333E-05     |
 +----------------------+-----------------------+---------------------+

 ======================================================================
 OUTER LOOP ITERATION =  611 (   11) CPU SECONDS = 1.206E+03 (4.750E+01)
 ----------------------------------------------------------------------
 |       Equation       | Rate | RMS Res | Max Res |  Linear Solution |
 +----------------------+------+---------+---------+------------------+
 | U-Mom                | 0.94 | 1.8E-04 | 5.2E-03 |       3.8E-03  OK|
 | V-Mom                | 1.03 | 2.2E-04 | 6.3E-03 |       4.2E-03  OK|
 | W-Mom                | 0.98 | 2.9E-04 | 3.9E-03 |       5.0E-03  OK|
 | P-Mass               | 0.95 | 6.6E-07 | 9.3E-06 |  9.6  9.7E-02  OK|
 +--------------------------------------------------------------------+
 |                     ****** Notice ******                           |
 |  A wall has been placed at portion(s) of an INLET                  |
 |  boundary condition (at  94.4% of the faces,  99.4% of the area)   |
 |  to prevent fluid from flowing out of the domain.                  |
 |  The boundary condition name is: R1 Inlet.                         |
 |  The fluid name is: Air Ideal Gas.                                 |
 |  If this situation persists, consider switching                    |
 |  to an Opening type boundary condition instead.                    |
 +--------------------------------------------------------------------+
 +--------------------------------------------------------------------+
 |                     ****** Notice ******                           |
 |  A wall has been placed at portion(s) of an OUTLET                 |
 |  boundary condition (at 100.0% of the faces, 100.0% of the area)   |
 |  to prevent fluid from flowing into the domain.                    |
 |  The boundary condition name is: R1 Outlet.                        |
 |  The fluid name is: Air Ideal Gas.                                 |
 |  If this situation persists, consider switching                    |
 |  to an Opening type boundary condition instead.                    |
 +--------------------------------------------------------------------+
 +----------------------+------+---------+---------+------------------+
 | H-Energy             | 1.00 | 3.7E-04 | 4.0E-03 |  5.8  2.7E-02  OK|
 +----------------------+------+---------+---------+------------------+
 | K-TurbKE             | 0.94 | 2.3E-04 | 3.3E-03 |  5.8  2.0E-02  OK|
 | O-TurbFreq           | 0.92 | 6.3E-05 | 1.6E-03 |  7.2  1.8E-02  OK|
 +----------------------+------+---------+---------+------------------+

 ======================================================================
 OUTER LOOP ITERATION =  612 (   12) CPU SECONDS = 1.208E+03 (4.940E+01)
 ----------------------------------------------------------------------
 |       Equation       | Rate | RMS Res | Max Res |  Linear Solution |
 +----------------------+------+---------+---------+------------------+
 | U-Mom                | 0.96 | 1.7E-04 | 4.0E-03 |       8.9E-04  OK|
 | V-Mom                | 1.02 | 2.2E-04 | 6.4E-03 |       1.1E-03  OK|
 | W-Mom                | 0.98 | 2.8E-04 | 3.8E-03 |       1.8E-03  OK|
 | P-Mass               | 0.95 | 6.3E-07 | 9.2E-06 | 13.9  4.9E-02  OK|
 +--------------------------------------------------------------------+
 |                     ****** Notice ******                           |
 |  A wall has been placed at portion(s) of an INLET                  |
 |  boundary condition (at  94.4% of the faces,  99.4% of the area)   |
 |  to prevent fluid from flowing out of the domain.                  |
 |  The boundary condition name is: R1 Inlet.                         |
 |  The fluid name is: Air Ideal Gas.                                 |
 |  If this situation persists, consider switching                    |
 |  to an Opening type boundary condition instead.                    |
 +--------------------------------------------------------------------+
[...]
 |  to prevent fluid from flowing into the domain.                    |
 |  The boundary condition name is: R1 Outlet.                        |
 |  The fluid name is: Air Ideal Gas.                                 |
 |  If this situation persists, consider switching                    |
 |  to an Opening type boundary condition instead.                    |
 +--------------------------------------------------------------------+
 +----------------------+------+---------+---------+------------------+
 | H-Energy             | 1.00 | 4.0E-04 | 2.6E-03 |  5.8  3.0E-02  OK|
 +----------------------+------+---------+---------+------------------+
 | K-TurbKE             | 0.98 | 2.5E-05 | 3.8E-04 |  5.8  1.1E-02  OK|
 | O-TurbFreq           | 0.98 | 9.6E-06 | 1.4E-04 |  7.2  1.1E-02  OK|
 +----------------------+------+---------+---------+------------------+

 ======================================================================
 OUTER LOOP ITERATION =  800 (  200) CPU SECONDS = 1.555E+03 (3.962E+02)
 ----------------------------------------------------------------------
 |       Equation       | Rate | RMS Res | Max Res |  Linear Solution |
 +----------------------+------+---------+---------+------------------+
 | U-Mom                | 0.96 | 2.2E-05 | 2.7E-04 |       1.4E-02  OK|
 | V-Mom                | 1.02 | 2.4E-05 | 4.6E-04 |       1.1E-02  OK|
 | W-Mom                | 0.95 | 2.7E-05 | 3.7E-04 |       2.1E-02  OK|
 | P-Mass               | 1.00 | 3.3E-07 | 1.6E-06 |  5.3  9.8E-02  OK|
 +--------------------------------------------------------------------+
 |                     ****** Notice ******                           |
 |  A wall has been placed at portion(s) of an INLET                  |
 |  boundary condition (at  94.4% of the faces,  99.4% of the area)   |
 |  to prevent fluid from flowing out of the domain.                  |
 |  The boundary condition name is: R1 Inlet.                         |
 |  The fluid name is: Air Ideal Gas.                                 |
 |  If this situation persists, consider switching                    |
 |  to an Opening type boundary condition instead.                    |
 +--------------------------------------------------------------------+
 +--------------------------------------------------------------------+
 |                     ****** Notice ******                           |
 |  A wall has been placed at portion(s) of an OUTLET                 |
 |  boundary condition (at 100.0% of the faces, 100.0% of the area)   |
 |  to prevent fluid from flowing into the domain.                    |
 |  The boundary condition name is: R1 Outlet.                        |
 |  The fluid name is: Air Ideal Gas.                                 |
 |  If this situation persists, consider switching                    |
 |  to an Opening type boundary condition instead.                    |
 +--------------------------------------------------------------------+
 +----------------------+------+---------+---------+------------------+
 | H-Energy             | 1.00 | 4.0E-04 | 2.6E-03 |  5.8  3.0E-02  OK|
 +----------------------+------+---------+---------+------------------+
 | K-TurbKE             | 0.98 | 2.4E-05 | 3.9E-04 |  5.8  1.1E-02  OK|
 | O-TurbFreq           | 1.01 | 9.7E-06 | 1.3E-04 |  7.2  1.1E-02  OK|
 +----------------------+------+---------+---------+------------------+
                   
 CFD Solver finished: Thu May 11 22:53:00 2023
 CFD Solver wall clock seconds: 6.1549E+01

 ======================================================================
              Termination and Interrupt Condition Summary
 ======================================================================
    
 CFD Solver: Run duration reached
   (Maximum number of outer iterations)

 ======================================================================
              Boundary Flow and Total Source Term Summary
 ======================================================================

 +--------------------------------------------------------------------+
 |                               U-Mom                                |
 +--------------------------------------------------------------------+
 Boundary         : R1 Blade                                1.5723E+01
 Boundary         : R1 Hub                                  2.5645E+01
 Boundary         : R1 Inlet                               -5.0838E+01
 Boundary         : R1 Outlet                               3.3420E+00
 Boundary         : R1 Shroud                              -9.4985E+01
 Boundary         : Periodic                                7.4522E+01
 Domain Src (Pos) : R1                                      2.6590E+01
                                                           -----------
 Domain Imbalance :                                        -1.2665E-03

 +--------------------------------------------------------------------+
 |                               V-Mom                                |
 +--------------------------------------------------------------------+
 Boundary         : R1 Blade                                1.5008E+00
 Boundary         : R1 Hub                                 -2.6248E+00
 Boundary         : R1 Inlet                               -9.2822E+00
 Boundary         : R1 Outlet                              -1.0916E+00
 Boundary         : R1 Shroud                               1.3227E+01
 Boundary         : Periodic                               -2.2247E+00
 Domain Src (Neg) : R1                                     -2.6828E+00
 Domain Src (Pos) : R1                                      3.1990E+00
                                                           -----------
 Domain Imbalance :                                         2.0866E-02

 +--------------------------------------------------------------------+
 |                               W-Mom                                |
 +--------------------------------------------------------------------+
 Boundary         : R1 Blade                                9.6550E+00
 Boundary         : R1 Hub                                  9.0103E+01
 Boundary         : R1 Inlet                               -2.9753E-02
 Boundary         : R1 Outlet                              -2.9963E+01
 Boundary         : R1 Shroud                              -6.9763E+01
 Boundary         : Periodic                                3.8147E-06
                                                           -----------
 Domain Imbalance :                                         2.2011E-03

 +--------------------------------------------------------------------+
 |                               P-Mass                               |
 +--------------------------------------------------------------------+
 Boundary         : R1 Inlet                                7.3177E-05

 +--------------------------------------------------------------------+
 |                              H-Energy                              |
 +--------------------------------------------------------------------+
 Boundary         : R1 Inlet                                3.2961E+01
 Bnd Src/Visc Work: R1 Inlet                                4.1459E-03
 Bnd Src/Visc Work: R1 Outlet                               7.7819E-03
 Bnd Src/Visc Work: R1 Shroud                               7.2271E+01
 Domain Src (Neg) : R1                                     -1.9937E+02
 Domain Src (Pos) : R1                                      1.9937E+02
                                                           -----------
 Domain Imbalance :                                         1.0524E+02


 +--------------------------------------------------------------------+
 |                     Normalised Imbalance Summary                   |
 +--------------------------------------------------------------------+
 |       Equation       |      Maximum Flow     |     Imbalance (%)   |
 +--------------------------------------------------------------------+
 | U-Mom                |       1.3200E+02      |       -0.0010       |
 | V-Mom                |       1.3200E+02      |        0.0158       |
 | W-Mom                |       1.3200E+02      |        0.0017       |
 | P-Mass               |       7.3177E-05      |      100.0000       |
 +----------------------+-----------------------+---------------------+
 | H-Energy             |       1.9937E+02      |       52.7878       |
 +----------------------+-----------------------+---------------------+

 ======================================================================
                     Wall Force and Moment Summary
 ======================================================================
                                                                          
 Notes:
 1. Pressure integrals exclude the reference pressure.  To include
    it, set the expert parameter 'include pref in forces = t'.
 2. These quantities are evaluated in a reference frame fixed to
    the initial domain orientation and are not rotated if the orientation
    changes (e.g. transient run or specified rotational offset).


 +--------------------------------------------------------------------+
 |                      Pressure Force On Walls                       |
 +--------------------------------------------------------------------+
                                    X-Comp.      Y-Comp.      Z-Comp.

 Domain Group: R1

 R1 Blade                        -1.5717E+01  -1.5000E+00  -9.6552E+00
 R1 Hub                          -2.5658E+01   2.6423E+00  -9.0103E+01
 R1 Shroud                        9.5009E+01  -1.3397E+01   6.9744E+01
                                  -----------  -----------  -----------
 Domain Group Totals :            5.3634E+01  -1.2255E+01  -3.0014E+01


 +--------------------------------------------------------------------+
 |                       Viscous Force On Walls                       |
 +--------------------------------------------------------------------+
                                    X-Comp.      Y-Comp.      Z-Comp.

 Domain Group: R1

 R1 Blade                        -5.6972E-03  -7.8589E-04   1.5031E-04
 R1 Hub                           1.2860E-02  -1.7489E-02   2.2327E-06
 R1 Shroud                       -2.3732E-02   1.6976E-01   1.8669E-02
                                  -----------  -----------  -----------
 Domain Group Totals :           -1.6570E-02   1.5149E-01   1.8822E-02


 +--------------------------------------------------------------------+
 |                      Pressure Moment On Walls                      |
 +--------------------------------------------------------------------+
                                    X-Comp.      Y-Comp.      Z-Comp.

 Domain Group: R1

 R1 Blade                        -4.8192E-02  -4.3465E-02  -6.8077E-03
 R1 Hub                          -1.0699E+00   3.2285E+00  -8.0408E-05
 R1 Shroud                        9.8567E-01  -3.3018E-02  -3.2607E-04
                                  -----------  -----------  -----------
 Domain Group Totals :           -1.3247E-01   3.1520E+00  -7.2142E-03


 +--------------------------------------------------------------------+
 |                       Viscous Moment On Walls                      |
 +--------------------------------------------------------------------+
                                    X-Comp.      Y-Comp.      Z-Comp.

 Domain Group: R1

 R1 Blade                         2.3263E-05  -1.8442E-04  -4.4553E-05
 R1 Hub                           1.2963E-05   4.2269E-06  -1.1060E-03
 R1 Shroud                       -4.0879E-03  -6.6722E-04   7.8256E-03
                                  -----------  -----------  -----------
 Domain Group Totals :           -4.0517E-03  -8.4741E-04   6.6750E-03


 +--------------------------------------------------------------------+
 |                   Locations of Maximum Residuals                   |
 +--------------------------------------------------------------------+
 |       Equation       |      Domain Name      |     Node Number     |
 +--------------------------------------------------------------------+
 | U-Mom                | R1                    |          11182      |
 | V-Mom                | R1                    |          14629      |
 | W-Mom                | R1                    |          45158      |
 | P-Mass               | R1                    |          14414      |
 +----------------------+-----------------------+---------------------+
 | H-Energy             | R1                    |          27245      |
 +----------------------+-----------------------+---------------------+
 | K-TurbKE             | R1                    |          14412      |
 | O-TurbFreq           | R1                    |          34157      |
 +----------------------+-----------------------+---------------------+

 ======================================================================
 |                     False Transient Information                    |
 +--------------------------------------------------------------------+
 |       Equation       |         Type          | Elapsed Pseudo-Time |
 +--------------------------------------------------------------------+
 | U-Mom                | Auto Timescale        |     8.66660E-03     |
 | V-Mom                | Auto Timescale        |     8.66660E-03     |
 | W-Mom                | Auto Timescale        |     8.66660E-03     |
 | P-Mass               | Auto Timescale        |     8.66660E-03     |
 +----------------------+-----------------------+---------------------+
 | H-Energy             | Auto Timescale        |     8.66660E-03     |
 +----------------------+-----------------------+---------------------+
 | K-TurbKE             | Auto Timescale        |     8.66660E-03     |
 | O-TurbFreq           | Auto Timescale        |     8.66660E-03     |
 +----------------------+-----------------------+---------------------+

 +--------------------------------------------------------------------+
 |                     Average Scale Information                      |
 +--------------------------------------------------------------------+

 Domain Name : R1
     Global Length                                         = 2.9068E-02
     Minimum Extent                                        = 4.8524E-02
     Maximum Extent                                        = 6.0006E-02
     Density                                               = 4.0912E-01
     Dynamic Viscosity                                     = 1.8310E-05
     Velocity                                              = 9.8216E+01
     Advection Time                                        = 2.9596E-04
     Reynolds Number                                       = 6.3790E+04
     Speed of Sound                                        = 5.7255E+02
     Mach Number                                           = 1.7154E-01
     Thermal Conductivity                                  = 2.6100E-02
     Specific Heat Capacity at Constant Pressure           = 1.0044E+03
     Specific Heat Capacity at Constant Volume             = 7.1730E+02
     Specific Heat Ratio                                   = 1.4003E+00
     Prandtl Number                                        = 7.0462E-01
     Temperature Range                                     = 1.8694E+02

 +--------------------------------------------------------------------+
 |                     Variable Range Information                     |
 +--------------------------------------------------------------------+

 Domain Name : R1
 +--------------------------------------------------------------------+
 |      Variable Name                         |    min    |    max    |
 +--------------------------------------------------------------------+
 | Density                                    |  3.49E-01 |  5.04E-01 |
 | Specific Heat Capacity at Constant Pressure|  1.00E+03 |  1.00E+03 |
 | Dynamic Viscosity                          |  1.83E-05 |  1.83E-05 |
 | Thermal Conductivity                       |  2.61E-02 |  2.61E-02 |
 | Isothermal Compressibility                 |  8.02E-06 |  1.30E-05 |
 | Static Entropy                             |  9.99E+02 |  1.11E+03 |
 | Velocity u                                 | -1.63E+02 |  1.14E+02 |
 | Velocity v                                 | -3.66E+02 |  5.62E+01 |
 | Velocity w                                 | -7.13E+01 |  1.08E+02 |
 | Pressure                                   |  7.67E+04 |  1.25E+05 |
 | Turbulence Kinetic Energy                  |  3.42E-04 |  1.42E+03 |
 | Turbulence Eddy Frequency                  |  1.01E+04 |  7.41E+06 |
 | Eddy Viscosity                             |  3.11E-11 |  7.41E-03 |
 | Temperature                                |  7.44E+02 |  9.31E+02 |
 | Static Enthalpy                            |  4.48E+05 |  6.36E+05 |
 | Total Enthalpy                             |  4.48E+05 |  6.47E+05 |
 | Wall Scale                                 | -1.59E-09 |  6.29E-05 |
 | Wall Distance                              |  0.00E+00 |  1.10E-02 |
 +--------------------------------------------------------------------+

 +--------------------------------------------------------------------+
 |           CPU Requirements of Numerical Solution - Total           |
 +--------------------------------------------------------------------+

 Subsystem Name                  Discretization       Linear Solution
                                (secs.   %total)     (secs.   %total) 
 ----------------------------------------------------------------------
 Momentum and Mass              1.70E+02  42.2 %     3.67E+01   9.1 %
 Heat Transfer                  3.87E+01   9.6 %     1.45E+01   3.6 %
 TurbKE and TurbFreq            3.53E+01   8.7 %     2.59E+01   6.4 %
                                -------- -------     --------  ------
 Subsystem Summary              2.44E+02  60.5 %     7.71E+01  19.1 %

 File Reading                   1.69E+00    0.4 %
 Search Calculations            3.68E-01    0.1 %
 Variable Updates               3.77E+01    9.3 %
 File Writing                   2.52E+00    0.6 %
 Miscellaneous                  4.01E+01    9.9 %
                                --------
 Total                          4.04E+02

 +--------------------------------------------------------------------+
 |                   Job Information at End of Run                    |
 +--------------------------------------------------------------------+

 Job finished:   Thu May 11 22:53:01 2023

 Total wall clock time: 6.684E+01 seconds
             or: (          0:         0:         1:     6.840 )
                 (       Days:     Hours:   Minutes:   Seconds )



 --> Final synchronization point reached by all partitions.
End of solution stage.

 +--------------------------------------------------------------------+
 | The results from this run of the ANSYS CFX Solver have been        |
 | written to                                                         |
 | //wsl.localhost/Ubuntu-22.04/root/LearnOpenFOAM/BasicOpenFOAMProg- |
 | rammingTutorials/OFtutorialTest04_MRF/turbine/mesh/wheel_pending/- |
 | dp0_CFX_Solution/CFX_004.res                                       |
 +--------------------------------------------------------------------+


 +--------------------------------------------------------------------+
 | For CFX runs launched from Workbench, the final locations of       |
 | directories and files generated may differ from those shown.       |
 +--------------------------------------------------------------------+


This run of the ANSYS CFX Solver has finished.
