/*---------------------------------------------------------------------------*\
| =========                 |                                                 |
| \\      /  F ield         | OpenFOAM: The Open Source CFD Toolbox           |
|  \\    /   O peration     | Version:  2212                                  |
|   \\  /    A nd           | Website:  www.openfoam.com                      |
|    \\/     M anipulation  |                                                 |
\*---------------------------------------------------------------------------*/
Build  : _c9081d5d-20230220 OPENFOAM=2212 patch=230110 version=2212
Arch   : "LSB;label=32;scalar=64"
Exec   : rhoPimpleFoam
Date   : May 09 2023
Time   : 22:53:24
Host   : AndriodSxx
PID    : 1111
I/O    : uncollated
Case   : /root/LearnOpenFOAM/tutorials/compressible/rhoPimpleFoam/RAS/mixerVessel2D
nProcs : 1
trapFpe: Floating point exception trapping enabled (FOAM_SIGFPE).
fileModificationChecking : Monitoring run-time modified files using timeStampMaster (fileModificationSkew 5, maxFileModificationPolls 20)
allowSystemOperations : Allowing user-supplied system call operations

// * * * * * * * * * * * * * * * * * * * * * * * * * * * * * * * * * * * * * //
Create time

Create mesh for time = 0


PIMPLE: Operating solver in PISO mode

Reading thermophysical properties

Selecting thermodynamics package 
{
    type            hePsiThermo;
    mixture         pureMixture;
    transport       sutherland;
    thermo          hConst;
    equationOfState perfectGas;
    specie          specie;
    energy          sensibleEnthalpy;
}

Reading field U

Reading/calculating face flux field phi

pressureControl
    pMax 120000
    pMin 80000

Creating turbulence model

Selecting turbulence model type RAS
Selecting RAS turbulence model kEpsilon
RAS
{
    RASModel        kEpsilon;
    turbulence      on;
    printCoeffs     on;
    Cmu             0.09;
    C1              1.44;
    C2              1.92;
    C3              0;
    sigmak          1;
    sigmaEps        1.3;
}

Creating field dpdt

Creating field kinetic energy K

Creating MRF zone list from MRFProperties
    creating MRF zone: MRF1
Creating finite volume options from "constant/fvOptions"

Selecting finite volume options type explicitPorositySource
    Source: porosity1
    - selecting cells using cellZones (stator)
    - selected 1536 cell(s) with volume 0.000200918
Porosity region porosity1:
    selecting model: DarcyForchheimer
    creating porous zone: stator
    origin: (0 0 0) identity rotation
    local bounds: (0.2 0.2 0.01)

Courant Number mean: 0 max: 0

Starting time loop

Selecting finite volume options type scalarSemiImplicitSource
    Source: source1
    - selecting cells geometrically
    Adding cells with centres within cylinder, with point1 = (0.05 0 -1), point2 = (0.05 0 1), radius = 0.01
    - selected 40 cell(s) with volume 3.2211e-06
Selecting finite volume options type scalarSemiImplicitSource
    Source: source2
    - selecting all cells
    - selected 3072 cell(s) with volume 0.000301378
Courant Number mean: 0 max: 0
deltaT = 1.20048e-05
Time = 1.20048e-05

PIMPLE: iteration 1
diagonal:  Solving for rho, Initial residual = 0, Final residual = 0, No Iterations 0
smoothSolver:  Solving for Ux, Initial residual = 1, Final residual = 1.39057e-07, No Iterations 2
smoothSolver:  Solving for Uy, Initial residual = 1, Final residual = 1.38876e-07, No Iterations 2
smoothSolver:  Solving for h, Initial residual = 0.00109277, Final residual = 0.000739654, No Iterations 1000
GAMG:  Solving for p, Initial residual = 1, Final residual = 0.0121536, No Iterations 2
diagonal:  Solving for rho, Initial residual = 0, Final residual = 0, No Iterations 0
time step continuity errors : sum local = 4.26816e-05, global = 1.90141e-06, cumulative = 1.90141e-06
GAMG:  Solving for p, Initial residual = 0.0341687, Final residual = 3.95382e-07, No Iterations 5
diagonal:  Solving for rho, Initial residual = 0, Final residual = 0, No Iterations 0
time step continuity errors : sum local = 2.91322e-09, global = -5.61791e-11, cumulative = 1.90135e-06
smoothSolver:  Solving for epsilon, Initial residual = 0.00850196, Final residual = 2.09019e-07, No Iterations 2
smoothSolver:  Solving for k, Initial residual = 1, Final residual = 3.68586e-07, No Iterations 3
ExecutionTime = 0.06 s  ClockTime = 0 s

smoothSolver:  Solving for tracer0, Initial residual = 1, Final residual = 0.00560811, No Iterations 1
Courant Number mean: 0.0596013 max: 0.272538
deltaT = 1.44127e-05
Time = 2.64175e-05

PIMPLE: iteration 1
diagonal:  Solving for rho, Initial residual = 0, Final residual = 0, No Iterations 0
smoothSolver:  Solving for Ux, Initial residual = 0.365261, Final residual = 1.45219e-07, No Iterations 3
smoothSolver:  Solving for Uy, Initial residual = 0.365235, Final residual = 1.34284e-07, No Iterations 3
smoothSolver:  Solving for h, Initial residual = 1, Final residual = 1.90941e-07, No Iterations 3
GAMG:  Solving for p, Initial residual = 0.390274, Final residual = 0.00426157, No Iterations 2
diagonal:  Solving for rho, Initial residual = 0, Final residual = 0, No Iterations 0
time step continuity errors : sum local = 5.71156e-05, global = 8.33023e-07, cumulative = 2.73437e-06
GAMG:  Solving for p, Initial residual = 0.0147344, Final residual = 3.84103e-07, No Iterations 5
diagonal:  Solving for rho, Initial residual = 0, Final residual = 0, No Iterations 0
time step continuity errors : sum local = 6.73675e-09, global = 9.57869e-11, cumulative = 2.73447e-06
smoothSolver:  Solving for epsilon, Initial residual = 0.0350877, Final residual = 2.41458e-06, No Iterations 2
smoothSolver:  Solving for k, Initial residual = 0.595488, Final residual = 1.37053e-06, No Iterations 3
ExecutionTime = 0.06 s  ClockTime = 0 s

smoothSolver:  Solving for tracer0, Initial residual = 0.192982, Final residual = 0.00126357, No Iterations 1
Courant Number mean: 0.0671288 max: 0.435541
deltaT = 1.72852e-05
Time = 4.37027e-05

PIMPLE: iteration 1
diagonal:  Solving for rho, Initial residual = 0, Final residual = 0, No Iterations 0
smoothSolver:  Solving for Ux, Initial residual = 0.279373, Final residual = 3.40443e-07, No Iterations 3
smoothSolver:  Solving for Uy, Initial residual = 0.279276, Final residual = 3.07814e-07, No Iterations 3
smoothSolver:  Solving for h, Initial residual = 0.371544, Final residual = 4.29909e-07, No Iterations 3
GAMG:  Solving for p, Initial residual = 0.398249, Final residual = 0.00556424, No Iterations 2
diagonal:  Solving for rho, Initial residual = 0, Final residual = 0, No Iterations 0
time step continuity errors : sum local = 0.000131681, global = 8.77999e-09, cumulative = 2.74325e-06
GAMG:  Solving for p, Initial residual = 0.0153543, Final residual = 2.03721e-07, No Iterations 6
diagonal:  Solving for rho, Initial residual = 0, Final residual = 0, No Iterations 0
time step continuity errors : sum local = 6.03189e-09, global = 7.4561e-11, cumulative = 2.74332e-06
smoothSolver:  Solving for epsilon, Initial residual = 0.154824, Final residual = 2.86216e-07, No Iterations 3
smoothSolver:  Solving for k, Initial residual = 0.497476, Final residual = 3.41762e-06, No Iterations 3
ExecutionTime = 0.06 s  ClockTime = 0 s

smoothSolver:  Solving for tracer0, Initial residual = 0.117375, Final residual = 0.00156682, No Iterations 1
Courant Number mean: 0.0768161 max: 0.632243
deltaT = 2.00328e-05
Time = 6.37355e-05

PIMPLE: iteration 1
diagonal:  Solving for rho, Initial residual = 0, Final residual = 0, No Iterations 0
smoothSolver:  Solving for Ux, Initial residual = 0.213522, Final residual = 2.25959e-06, No Iterations 3
smoothSolver:  Solving for Uy, Initial residual = 0.213149, Final residual = 1.4629e-06, No Iterations 3
smoothSolver:  Solving for h, Initial residual = 0.209381, Final residual = 7.17157e-07, No Iterations 3
GAMG:  Solving for p, Initial residual = 0.252182, Final residual = 0.00700128, No Iterations 2
diagonal:  Solving for rho, Initial residual = 0, Final residual = 0, No Iterations 0
time step continuity errors : sum local = 0.000243276, global = -7.9452e-07, cumulative = 1.9488e-06
GAMG:  Solving for p, Initial residual = 0.013169, Final residual = 2.6901e-07, No Iterations 6
diagonal:  Solving for rho, Initial residual = 0, Final residual = 0, No Iterations 0
time step continuity errors : sum local = 1.06471e-08, global = -5.26278e-11, cumulative = 1.94875e-06
smoothSolver:  Solving for epsilon, Initial residual = 0.330439, Final residual = 5.54958e-07, No Iterations 4
smoothSolver:  Solving for k, Initial residual = 0.444939, Final residual = 4.46885e-06, No Iterations 4
ExecutionTime = 0.07 s  ClockTime = 0 s

smoothSolver:  Solving for tracer0, Initial residual = 0.0857973, Final residual = 0.00179813, No Iterations 1
Courant Number mean: 0.0898612 max: 0.782301
deltaT = 2.25824e-05
Time = 8.63179e-05

PIMPLE: iteration 1
diagonal:  Solving for rho, Initial residual = 0, Final residual = 0, No Iterations 0
smoothSolver:  Solving for Ux, Initial residual = 0.174274, Final residual = 3.80337e-06, No Iterations 4
smoothSolver:  Solving for Uy, Initial residual = 0.173595, Final residual = 3.4164e-06, No Iterations 4
smoothSolver:  Solving for h, Initial residual = 0.139958, Final residual = 1.51414e-06, No Iterations 4
GAMG:  Solving for p, Initial residual = 0.197743, Final residual = 0.00527893, No Iterations 2
diagonal:  Solving for rho, Initial residual = 0, Final residual = 0, No Iterations 0
time step continuity errors : sum local = 0.000218215, global = -7.40787e-06, cumulative = -5.45912e-06
GAMG:  Solving for p, Initial residual = 0.0095114, Final residual = 3.93273e-07, No Iterations 6
diagonal:  Solving for rho, Initial residual = 0, Final residual = 0, No Iterations 0
time step continuity errors : sum local = 1.68071e-08, global = 2.89282e-11, cumulative = -5.45909e-06
smoothSolver:  Solving for epsilon, Initial residual = 0.254338, Final residual = 6.20242e-06, No Iterations 5
smoothSolver:  Solving for k, Initial residual = 0.305614, Final residual = 1.88544e-06, No Iterations 7
ExecutionTime = 0.07 s  ClockTime = 0 s

smoothSolver:  Solving for tracer0, Initial residual = 0.0680555, Final residual = 0.00180591, No Iterations 1
Courant Number mean: 0.109184 max: 0.846528
deltaT = 2.52257e-05
Time = 0.000111544

PIMPLE: iteration 1
diagonal:  Solving for rho, Initial residual = 0, Final residual = 0, No Iterations 0
smoothSolver:  Solving for Ux, Initial residual = 0.14053, Final residual = 3.77364e-06, No Iterations 5
smoothSolver:  Solving for Uy, Initial residual = 0.139336, Final residual = 4.17956e-06, No Iterations 5
smoothSolver:  Solving for h, Initial residual = 0.122385, Final residual = 2.14523e-06, No Iterations 5
GAMG:  Solving for p, Initial residual = 0.255744, Final residual = 0.00826303, No Iterations 2
diagonal:  Solving for rho, Initial residual = 0, Final residual = 0, No Iterations 0
time step continuity errors : sum local = 0.000329925, global = -1.43178e-05, cumulative = -1.97769e-05
GAMG:  Solving for p, Initial residual = 0.0156041, Final residual = 8.71516e-07, No Iterations 6
diagonal:  Solving for rho, Initial residual = 0, Final residual = 0, No Iterations 0
time step continuity errors : sum local = 3.19422e-08, global = 7.19035e-10, cumulative = -1.97762e-05
smoothSolver:  Solving for epsilon, Initial residual = 0.155773, Final residual = 2.23119e-06, No Iterations 7
smoothSolver:  Solving for k, Initial residual = 0.189064, Final residual = 4.38255e-06, No Iterations 8
ExecutionTime = 0.08 s  ClockTime = 0 s

smoothSolver:  Solving for tracer0, Initial residual = 0.0569804, Final residual = 0.00168619, No Iterations 1
Courant Number mean: 0.130786 max: 0.881624
deltaT = 2.80922e-05
Time = 0.000139636

PIMPLE: iteration 1
diagonal:  Solving for rho, Initial residual = 0, Final residual = 0, No Iterations 0
smoothSolver:  Solving for Ux, Initial residual = 0.102268, Final residual = 3.05865e-06, No Iterations 5
smoothSolver:  Solving for Uy, Initial residual = 0.100552, Final residual = 2.87798e-06, No Iterations 5
smoothSolver:  Solving for h, Initial residual = 0.177706, Final residual = 5.92714e-06, No Iterations 5
GAMG:  Solving for p, Initial residual = 0.377581, Final residual = 0.0122182, No Iterations 2
diagonal:  Solving for rho, Initial residual = 0, Final residual = 0, No Iterations 0
time step continuity errors : sum local = 0.000402892, global = -1.28354e-05, cumulative = -3.26116e-05
GAMG:  Solving for p, Initial residual = 0.0265141, Final residual = 4.55071e-07, No Iterations 7
diagonal:  Solving for rho, Initial residual = 0, Final residual = 0, No Iterations 0
time step continuity errors : sum local = 1.26185e-08, global = 5.55635e-10, cumulative = -3.2611e-05
smoothSolver:  Solving for epsilon, Initial residual = 0.112981, Final residual = 8.25578e-06, No Iterations 6
smoothSolver:  Solving for k, Initial residual = 0.124423, Final residual = 7.3972e-06, No Iterations 7
ExecutionTime = 0.08 s  ClockTime = 0 s

smoothSolver:  Solving for tracer0, Initial residual = 0.0493229, Final residual = 0.00155255, No Iterations 1
Courant Number mean: 0.148438 max: 0.940327
deltaT = 2.98799e-05
Time = 0.000169516

PIMPLE: iteration 1
diagonal:  Solving for rho, Initial residual = 0, Final residual = 0, No Iterations 0
smoothSolver:  Solving for Ux, Initial residual = 0.0724392, Final residual = 2.54549e-06, No Iterations 5
smoothSolver:  Solving for Uy, Initial residual = 0.0703883, Final residual = 2.69615e-06, No Iterations 5
smoothSolver:  Solving for h, Initial residual = 0.273004, Final residual = 2.39246e-06, No Iterations 6
GAMG:  Solving for p, Initial residual = 0.40848, Final residual = 0.00903553, No Iterations 2
diagonal:  Solving for rho, Initial residual = 0, Final residual = 0, No Iterations 0
time step continuity errors : sum local = 0.000257535, global = -2.09999e-06, cumulative = -3.4711e-05
GAMG:  Solving for p, Initial residual = 0.0237994, Final residual = 3.88792e-07, No Iterations 7
diagonal:  Solving for rho, Initial residual = 0, Final residual = 0, No Iterations 0
time step continuity errors : sum local = 1.09985e-08, global = 9.95743e-10, cumulative = -3.471e-05
smoothSolver:  Solving for epsilon, Initial residual = 0.0809659, Final residual = 2.76903e-06, No Iterations 6
smoothSolver:  Solving for k, Initial residual = 0.0834721, Final residual = 8.71253e-06, No Iterations 6
ExecutionTime = 0.09 s  ClockTime = 0 s

smoothSolver:  Solving for tracer0, Initial residual = 0.0421601, Final residual = 0.00112491, No Iterations 1
Courant Number mean: 0.152389 max: 0.904323
deltaT = 3.29882e-05
Time = 0.000202504

PIMPLE: iteration 1
diagonal:  Solving for rho, Initial residual = 0, Final residual = 0, No Iterations 0
smoothSolver:  Solving for Ux, Initial residual = 0.0814903, Final residual = 9.60555e-06, No Iterations 5
smoothSolver:  Solving for Uy, Initial residual = 0.0807649, Final residual = 2.3619e-06, No Iterations 6
smoothSolver:  Solving for h, Initial residual = 0.350791, Final residual = 6.37602e-06, No Iterations 6
GAMG:  Solving for p, Initial residual = 0.29734, Final residual = 0.00957292, No Iterations 2
diagonal:  Solving for rho, Initial residual = 0, Final residual = 0, No Iterations 0
time step continuity errors : sum local = 0.000281971, global = 8.73827e-06, cumulative = -2.59717e-05
GAMG:  Solving for p, Initial residual = 0.0248173, Final residual = 4.35566e-07, No Iterations 7
diagonal:  Solving for rho, Initial residual = 0, Final residual = 0, No Iterations 0
time step continuity errors : sum local = 1.26837e-08, global = 1.00356e-09, cumulative = -2.59707e-05
smoothSolver:  Solving for epsilon, Initial residual = 0.0618959, Final residual = 2.05338e-06, No Iterations 6
smoothSolver:  Solving for k, Initial residual = 0.0631294, Final residual = 5.77502e-06, No Iterations 6
ExecutionTime = 0.09 s  ClockTime = 0 s

smoothSolver:  Solving for tracer0, Initial residual = 0.03903, Final residual = 0.000915619, No Iterations 1
Courant Number mean: 0.156538 max: 0.907362
deltaT = 3.64219e-05
Time = 0.000238926

PIMPLE: iteration 1
diagonal:  Solving for rho, Initial residual = 0, Final residual = 0, No Iterations 0
smoothSolver:  Solving for Ux, Initial residual = 0.115077, Final residual = 4.57687e-06, No Iterations 6
smoothSolver:  Solving for Uy, Initial residual = 0.115558, Final residual = 4.8298e-06, No Iterations 6
smoothSolver:  Solving for h, Initial residual = 0.23716, Final residual = 9.18733e-06, No Iterations 6
GAMG:  Solving for p, Initial residual = 0.294064, Final residual = 0.0032752, No Iterations 3
diagonal:  Solving for rho, Initial residual = 0, Final residual = 0, No Iterations 0
time step continuity errors : sum local = 9.12629e-05, global = -3.90842e-06, cumulative = -2.98792e-05
GAMG:  Solving for p, Initial residual = 0.0378824, Final residual = 3.30834e-07, No Iterations 8
diagonal:  Solving for rho, Initial residual = 0, Final residual = 0, No Iterations 0
time step continuity errors : sum local = 8.19079e-09, global = -1.91035e-09, cumulative = -2.98811e-05
smoothSolver:  Solving for epsilon, Initial residual = 0.0471666, Final residual = 8.70227e-06, No Iterations 5
smoothSolver:  Solving for k, Initial residual = 0.0503106, Final residual = 4.74656e-06, No Iterations 6
ExecutionTime = 0.1 s  ClockTime = 0 s

smoothSolver:  Solving for tracer0, Initial residual = 0.0370868, Final residual = 0.000880507, No Iterations 1
Courant Number mean: 0.162482 max: 0.903983
deltaT = 4.0335e-05
Time = 0.000279261

PIMPLE: iteration 1
diagonal:  Solving for rho, Initial residual = 0, Final residual = 0, No Iterations 0
smoothSolver:  Solving for Ux, Initial residual = 0.119029, Final residual = 4.65149e-06, No Iterations 6
smoothSolver:  Solving for Uy, Initial residual = 0.117487, Final residual = 4.88976e-06, No Iterations 6
smoothSolver:  Solving for h, Initial residual = 0.190808, Final residual = 2.84352e-06, No Iterations 6
GAMG:  Solving for p, Initial residual = 0.478268, Final residual = 0.017626, No Iterations 2
diagonal:  Solving for rho, Initial residual = 0, Final residual = 0, No Iterations 0
time step continuity errors : sum local = 0.000380591, global = -9.03481e-06, cumulative = -3.89159e-05
GAMG:  Solving for p, Initial residual = 0.0622066, Final residual = 8.63916e-07, No Iterations 8
diagonal:  Solving for rho, Initial residual = 0, Final residual = 0, No Iterations 0
time step continuity errors : sum local = 1.36658e-08, global = 4.82056e-09, cumulative = -3.89111e-05
smoothSolver:  Solving for epsilon, Initial residual = 0.0411993, Final residual = 8.11023e-06, No Iterations 5
smoothSolver:  Solving for k, Initial residual = 0.0453907, Final residual = 3.99355e-06, No Iterations 6
ExecutionTime = 0.1 s  ClockTime = 0 s

smoothSolver:  Solving for tracer0, Initial residual = 0.0354113, Final residual = 0.000908243, No Iterations 1
Courant Number mean: 0.180374 max: 0.941039
deltaT = 4.28226e-05
Time = 0.000322083

PIMPLE: iteration 1
diagonal:  Solving for rho, Initial residual = 0, Final residual = 0, No Iterations 0
smoothSolver:  Solving for Ux, Initial residual = 0.0668618, Final residual = 6.22888e-06, No Iterations 5
smoothSolver:  Solving for Uy, Initial residual = 0.0637838, Final residual = 6.45629e-06, No Iterations 5
smoothSolver:  Solving for h, Initial residual = 0.305097, Final residual = 4.3788e-06, No Iterations 7
GAMG:  Solving for p, Initial residual = 0.555783, Final residual = 0.0222361, No Iterations 2
diagonal:  Solving for rho, Initial residual = 0, Final residual = 0, No Iterations 0
time step continuity errors : sum local = 0.000387707, global = -3.50455e-05, cumulative = -7.39565e-05
GAMG:  Solving for p, Initial residual = 0.0514896, Final residual = 7.49039e-07, No Iterations 8
diagonal:  Solving for rho, Initial residual = 0, Final residual = 0, No Iterations 0
time step continuity errors : sum local = 1.3153e-08, global = 3.83902e-09, cumulative = -7.39527e-05
smoothSolver:  Solving for epsilon, Initial residual = 0.0339562, Final residual = 7.49371e-06, No Iterations 5
smoothSolver:  Solving for k, Initial residual = 0.0424642, Final residual = 3.58033e-06, No Iterations 6
ExecutionTime = 0.11 s  ClockTime = 0 s

smoothSolver:  Solving for tracer0, Initial residual = 0.0326124, Final residual = 0.000920734, No Iterations 1
Courant Number mean: 0.1927 max: 0.999516
deltaT = 4.28226e-05
Time = 0.000364906

PIMPLE: iteration 1
diagonal:  Solving for rho, Initial residual = 0, Final residual = 0, No Iterations 0
smoothSolver:  Solving for Ux, Initial residual = 0.0576554, Final residual = 3.92004e-06, No Iterations 5
smoothSolver:  Solving for Uy, Initial residual = 0.0580485, Final residual = 3.95991e-06, No Iterations 5
smoothSolver:  Solving for h, Initial residual = 0.285438, Final residual = 3.7404e-06, No Iterations 7
GAMG:  Solving for p, Initial residual = 0.266231, Final residual = 0.00294772, No Iterations 3
diagonal:  Solving for rho, Initial residual = 0, Final residual = 0, No Iterations 0
time step continuity errors : sum local = 5.71136e-05, global = 8.40857e-06, cumulative = -6.55441e-05
GAMG:  Solving for p, Initial residual = 0.0264695, Final residual = 4.18154e-07, No Iterations 8
diagonal:  Solving for rho, Initial residual = 0, Final residual = 0, No Iterations 0
time step continuity errors : sum local = 8.87897e-09, global = 3.68151e-09, cumulative = -6.55405e-05
smoothSolver:  Solving for epsilon, Initial residual = 0.0302048, Final residual = 6.12553e-06, No Iterations 5
smoothSolver:  Solving for k, Initial residual = 0.0379441, Final residual = 3.16973e-06, No Iterations 6
ExecutionTime = 0.11 s  ClockTime = 0 s

smoothSolver:  Solving for tracer0, Initial residual = 0.0285205, Final residual = 0.000853042, No Iterations 1
Courant Number mean: 0.194625 max: 1.01419
deltaT = 4.22592e-05
Time = 0.000407165

PIMPLE: iteration 1
diagonal:  Solving for rho, Initial residual = 0, Final residual = 0, No Iterations 0
smoothSolver:  Solving for Ux, Initial residual = 0.0635437, Final residual = 6.37814e-06, No Iterations 5
smoothSolver:  Solving for Uy, Initial residual = 0.0632325, Final residual = 6.54467e-06, No Iterations 5
smoothSolver:  Solving for h, Initial residual = 0.119381, Final residual = 9.41424e-06, No Iterations 5
GAMG:  Solving for p, Initial residual = 0.203654, Final residual = 0.00824436, No Iterations 2
diagonal:  Solving for rho, Initial residual = 0, Final residual = 0, No Iterations 0
time step continuity errors : sum local = 0.000160309, global = 1.22852e-06, cumulative = -6.43119e-05
GAMG:  Solving for p, Initial residual = 0.0257515, Final residual = 3.4351e-07, No Iterations 8
diagonal:  Solving for rho, Initial residual = 0, Final residual = 0, No Iterations 0
time step continuity errors : sum local = 6.24315e-09, global = -2.17177e-09, cumulative = -6.43141e-05
smoothSolver:  Solving for epsilon, Initial residual = 0.0277921, Final residual = 4.77367e-06, No Iterations 5
smoothSolver:  Solving for k, Initial residual = 0.0336247, Final residual = 9.89261e-06, No Iterations 5
ExecutionTime = 0.12 s  ClockTime = 0 s

smoothSolver:  Solving for tracer0, Initial residual = 0.024968, Final residual = 0.000789613, No Iterations 1
Courant Number mean: 0.195852 max: 1.00823
deltaT = 4.18901e-05
Time = 0.000449055

PIMPLE: iteration 1
diagonal:  Solving for rho, Initial residual = 0, Final residual = 0, No Iterations 0
smoothSolver:  Solving for Ux, Initial residual = 0.0469838, Final residual = 7.03461e-06, No Iterations 5
smoothSolver:  Solving for Uy, Initial residual = 0.0450426, Final residual = 7.27106e-06, No Iterations 5
smoothSolver:  Solving for h, Initial residual = 0.105804, Final residual = 4.05227e-06, No Iterations 6
GAMG:  Solving for p, Initial residual = 0.280089, Final residual = 0.0107676, No Iterations 2
diagonal:  Solving for rho, Initial residual = 0, Final residual = 0, No Iterations 0
time step continuity errors : sum local = 0.000170885, global = 1.27916e-05, cumulative = -5.15225e-05
GAMG:  Solving for p, Initial residual = 0.0307965, Final residual = 3.16737e-07, No Iterations 8
diagonal:  Solving for rho, Initial residual = 0, Final residual = 0, No Iterations 0
time step continuity errors : sum local = 4.39073e-09, global = -1.28146e-09, cumulative = -5.15238e-05
smoothSolver:  Solving for epsilon, Initial residual = 0.0253829, Final residual = 3.69916e-06, No Iterations 5
smoothSolver:  Solving for k, Initial residual = 0.030037, Final residual = 8.20883e-06, No Iterations 5
ExecutionTime = 0.12 s  ClockTime = 0 s

smoothSolver:  Solving for tracer0, Initial residual = 0.022593, Final residual = 0.000702965, No Iterations 1
Courant Number mean: 0.195363 max: 0.987939
deltaT = 4.24486e-05
Time = 0.000491504

PIMPLE: iteration 1
diagonal:  Solving for rho, Initial residual = 0, Final residual = 0, No Iterations 0
smoothSolver:  Solving for Ux, Initial residual = 0.0309553, Final residual = 5.60827e-06, No Iterations 5
smoothSolver:  Solving for Uy, Initial residual = 0.0304967, Final residual = 5.86519e-06, No Iterations 5
smoothSolver:  Solving for h, Initial residual = 0.130958, Final residual = 5.38174e-06, No Iterations 6
GAMG:  Solving for p, Initial residual = 0.262494, Final residual = 0.010881, No Iterations 2
diagonal:  Solving for rho, Initial residual = 0, Final residual = 0, No Iterations 0
time step continuity errors : sum local = 0.000138244, global = 7.01581e-06, cumulative = -4.4508e-05
GAMG:  Solving for p, Initial residual = 0.0271679, Final residual = 3.00677e-07, No Iterations 8
diagonal:  Solving for rho, Initial residual = 0, Final residual = 0, No Iterations 0
time step continuity errors : sum local = 3.45414e-09, global = 3.47492e-10, cumulative = -4.45076e-05
smoothSolver:  Solving for epsilon, Initial residual = 0.0237323, Final residual = 3.0617e-06, No Iterations 5
smoothSolver:  Solving for k, Initial residual = 0.0280511, Final residual = 7.40102e-06, No Iterations 5
ExecutionTime = 0.13 s  ClockTime = 0 s

smoothSolver:  Solving for tracer0, Initial residual = 0.0212614, Final residual = 0.000686183, No Iterations 1
Courant Number mean: 0.195661 max: 0.981286
deltaT = 4.32204e-05
Time = 0.000534724

PIMPLE: iteration 1
diagonal:  Solving for rho, Initial residual = 0, Final residual = 0, No Iterations 0
smoothSolver:  Solving for Ux, Initial residual = 0.0268367, Final residual = 3.44761e-06, No Iterations 5
smoothSolver:  Solving for Uy, Initial residual = 0.0283533, Final residual = 3.68122e-06, No Iterations 5
smoothSolver:  Solving for h, Initial residual = 0.0945829, Final residual = 3.0241e-06, No Iterations 6
GAMG:  Solving for p, Initial residual = 0.188663, Final residual = 0.00858794, No Iterations 2
diagonal:  Solving for rho, Initial residual = 0, Final residual = 0, No Iterations 0
time step continuity errors : sum local = 9.81257e-05, global = -3.98546e-06, cumulative = -4.84931e-05
GAMG:  Solving for p, Initial residual = 0.0223791, Final residual = 9.54286e-07, No Iterations 7
diagonal:  Solving for rho, Initial residual = 0, Final residual = 0, No Iterations 0
time step continuity errors : sum local = 1.06498e-08, global = -2.35121e-09, cumulative = -4.84955e-05
smoothSolver:  Solving for epsilon, Initial residual = 0.0225188, Final residual = 2.77616e-06, No Iterations 5
smoothSolver:  Solving for k, Initial residual = 0.027001, Final residual = 7.04963e-06, No Iterations 5
ExecutionTime = 0.13 s  ClockTime = 0 s

smoothSolver:  Solving for tracer0, Initial residual = 0.020185, Final residual = 0.000663853, No Iterations 1
Courant Number mean: 0.196133 max: 0.987
deltaT = 4.38207e-05
Time = 0.000578545

PIMPLE: iteration 1
diagonal:  Solving for rho, Initial residual = 0, Final residual = 0, No Iterations 0
smoothSolver:  Solving for Ux, Initial residual = 0.0259829, Final residual = 2.45621e-06, No Iterations 5
smoothSolver:  Solving for Uy, Initial residual = 0.0262604, Final residual = 2.68907e-06, No Iterations 5
smoothSolver:  Solving for h, Initial residual = 0.0492968, Final residual = 9.79112e-06, No Iterations 4
GAMG:  Solving for p, Initial residual = 0.198811, Final residual = 0.00722815, No Iterations 2
diagonal:  Solving for rho, Initial residual = 0, Final residual = 0, No Iterations 0
time step continuity errors : sum local = 8.49347e-05, global = -9.5297e-06, cumulative = -5.80252e-05
GAMG:  Solving for p, Initial residual = 0.0211414, Final residual = 8.12122e-07, No Iterations 7
diagonal:  Solving for rho, Initial residual = 0, Final residual = 0, No Iterations 0
time step continuity errors : sum local = 9.76498e-09, global = -2.61726e-09, cumulative = -5.80278e-05
smoothSolver:  Solving for epsilon, Initial residual = 0.0218214, Final residual = 2.62006e-06, No Iterations 5
smoothSolver:  Solving for k, Initial residual = 0.0262509, Final residual = 7.17052e-06, No Iterations 5
ExecutionTime = 0.14 s  ClockTime = 0 s

smoothSolver:  Solving for tracer0, Initial residual = 0.0190658, Final residual = 0.000654618, No Iterations 1
Courant Number mean: 0.198177 max: 0.997337
deltaT = 4.40255e-05
Time = 0.000622571

PIMPLE: iteration 1
diagonal:  Solving for rho, Initial residual = 0, Final residual = 0, No Iterations 0
smoothSolver:  Solving for Ux, Initial residual = 0.0238891, Final residual = 3.76571e-06, No Iterations 5
smoothSolver:  Solving for Uy, Initial residual = 0.0229428, Final residual = 4.0167e-06, No Iterations 5
smoothSolver:  Solving for h, Initial residual = 0.0664517, Final residual = 9.1835e-06, No Iterations 5
GAMG:  Solving for p, Initial residual = 0.137628, Final residual = 0.00599532, No Iterations 2
diagonal:  Solving for rho, Initial residual = 0, Final residual = 0, No Iterations 0
time step continuity errors : sum local = 7.58646e-05, global = -8.3771e-06, cumulative = -6.64049e-05
GAMG:  Solving for p, Initial residual = 0.0155637, Final residual = 6.51976e-07, No Iterations 7
diagonal:  Solving for rho, Initial residual = 0, Final residual = 0, No Iterations 0
time step continuity errors : sum local = 8.5647e-09, global = 2.2292e-09, cumulative = -6.64026e-05
smoothSolver:  Solving for epsilon, Initial residual = 0.0212507, Final residual = 2.4936e-06, No Iterations 5
smoothSolver:  Solving for k, Initial residual = 0.0252263, Final residual = 7.3643e-06, No Iterations 5
ExecutionTime = 0.14 s  ClockTime = 0 s

smoothSolver:  Solving for tracer0, Initial residual = 0.0180287, Final residual = 0.000629312, No Iterations 1
Courant Number mean: 0.200644 max: 0.998819
deltaT = 4.40255e-05
Time = 0.000666596

PIMPLE: iteration 1
diagonal:  Solving for rho, Initial residual = 0, Final residual = 0, No Iterations 0
smoothSolver:  Solving for Ux, Initial residual = 0.0221618, Final residual = 6.25616e-06, No Iterations 5
smoothSolver:  Solving for Uy, Initial residual = 0.0214235, Final residual = 6.58805e-06, No Iterations 5
smoothSolver:  Solving for h, Initial residual = 0.0538345, Final residual = 6.84657e-06, No Iterations 5
GAMG:  Solving for p, Initial residual = 0.0818103, Final residual = 0.00351201, No Iterations 2
diagonal:  Solving for rho, Initial residual = 0, Final residual = 0, No Iterations 0
time step continuity errors : sum local = 4.66505e-05, global = -2.36814e-06, cumulative = -6.87708e-05
GAMG:  Solving for p, Initial residual = 0.0093709, Final residual = 3.86715e-07, No Iterations 7
diagonal:  Solving for rho, Initial residual = 0, Final residual = 0, No Iterations 0
time step continuity errors : sum local = 5.19689e-09, global = 3.93613e-10, cumulative = -6.87704e-05
smoothSolver:  Solving for epsilon, Initial residual = 0.0206976, Final residual = 2.37608e-06, No Iterations 5
smoothSolver:  Solving for k, Initial residual = 0.0239764, Final residual = 7.50716e-06, No Iterations 5
ExecutionTime = 0.15 s  ClockTime = 0 s

smoothSolver:  Solving for tracer0, Initial residual = 0.0170176, Final residual = 0.000595769, No Iterations 1
Courant Number mean: 0.202513 max: 0.99176
deltaT = 4.44448e-05
Time = 0.000711041

PIMPLE: iteration 1
diagonal:  Solving for rho, Initial residual = 0, Final residual = 0, No Iterations 0
smoothSolver:  Solving for Ux, Initial residual = 0.0198452, Final residual = 7.70181e-06, No Iterations 5
smoothSolver:  Solving for Uy, Initial residual = 0.0187256, Final residual = 8.1115e-06, No Iterations 5
smoothSolver:  Solving for h, Initial residual = 0.0310058, Final residual = 7.42959e-06, No Iterations 4
GAMG:  Solving for p, Initial residual = 0.0764361, Final residual = 0.00299813, No Iterations 2
diagonal:  Solving for rho, Initial residual = 0, Final residual = 0, No Iterations 0
time step continuity errors : sum local = 3.95214e-05, global = -2.27696e-07, cumulative = -6.89981e-05
GAMG:  Solving for p, Initial residual = 0.00825273, Final residual = 4.06578e-07, No Iterations 7
diagonal:  Solving for rho, Initial residual = 0, Final residual = 0, No Iterations 0
time step continuity errors : sum local = 5.23437e-09, global = 1.35336e-09, cumulative = -6.89967e-05
smoothSolver:  Solving for epsilon, Initial residual = 0.0202509, Final residual = 2.43772e-06, No Iterations 5
smoothSolver:  Solving for k, Initial residual = 0.0228826, Final residual = 7.96271e-06, No Iterations 5
ExecutionTime = 0.15 s  ClockTime = 0 s

smoothSolver:  Solving for tracer0, Initial residual = 0.0163186, Final residual = 0.00059378, No Iterations 1
Courant Number mean: 0.205463 max: 0.989422
deltaT = 4.48742e-05
Time = 0.000755915

PIMPLE: iteration 1
diagonal:  Solving for rho, Initial residual = 0, Final residual = 0, No Iterations 0
smoothSolver:  Solving for Ux, Initial residual = 0.0167947, Final residual = 7.11425e-06, No Iterations 5
smoothSolver:  Solving for Uy, Initial residual = 0.0159143, Final residual = 7.5213e-06, No Iterations 5
smoothSolver:  Solving for h, Initial residual = 0.0303018, Final residual = 4.51225e-06, No Iterations 5
GAMG:  Solving for p, Initial residual = 0.0940069, Final residual = 0.00340614, No Iterations 2
diagonal:  Solving for rho, Initial residual = 0, Final residual = 0, No Iterations 0
time step continuity errors : sum local = 4.24872e-05, global = -2.17977e-07, cumulative = -6.92147e-05
GAMG:  Solving for p, Initial residual = 0.00960218, Final residual = 3.90243e-07, No Iterations 7
diagonal:  Solving for rho, Initial residual = 0, Final residual = 0, No Iterations 0
time step continuity errors : sum local = 4.69928e-09, global = 1.06601e-09, cumulative = -6.92136e-05
smoothSolver:  Solving for epsilon, Initial residual = 0.019825, Final residual = 2.48133e-06, No Iterations 5
smoothSolver:  Solving for k, Initial residual = 0.0218957, Final residual = 8.39943e-06, No Iterations 5
ExecutionTime = 0.16 s  ClockTime = 0 s

smoothSolver:  Solving for tracer0, Initial residual = 0.0157765, Final residual = 0.000605509, No Iterations 1
Courant Number mean: 0.207433 max: 0.991259
deltaT = 4.53141e-05
Time = 0.000801229

PIMPLE: iteration 1
diagonal:  Solving for rho, Initial residual = 0, Final residual = 0, No Iterations 0
smoothSolver:  Solving for Ux, Initial residual = 0.0152345, Final residual = 5.30556e-06, No Iterations 5
smoothSolver:  Solving for Uy, Initial residual = 0.0150861, Final residual = 5.62278e-06, No Iterations 5
smoothSolver:  Solving for h, Initial residual = 0.040207, Final residual = 5.34259e-06, No Iterations 5
GAMG:  Solving for p, Initial residual = 0.0989567, Final residual = 0.00241313, No Iterations 2
diagonal:  Solving for rho, Initial residual = 0, Final residual = 0, No Iterations 0
time step continuity errors : sum local = 2.87387e-05, global = -1.14214e-06, cumulative = -7.03558e-05
GAMG:  Solving for p, Initial residual = 0.00963482, Final residual = 9.73149e-07, No Iterations 6
diagonal:  Solving for rho, Initial residual = 0, Final residual = 0, No Iterations 0
time step continuity errors : sum local = 1.14388e-08, global = 6.59949e-10, cumulative = -7.03551e-05
smoothSolver:  Solving for epsilon, Initial residual = 0.0194011, Final residual = 2.53964e-06, No Iterations 5
smoothSolver:  Solving for k, Initial residual = 0.021033, Final residual = 8.72235e-06, No Iterations 5
ExecutionTime = 0.16 s  ClockTime = 0 s

smoothSolver:  Solving for tracer0, Initial residual = 0.0153929, Final residual = 0.000612266, No Iterations 1
Courant Number mean: 0.208994 max: 0.994404
deltaT = 4.55385e-05
Time = 0.000846768

PIMPLE: iteration 1
diagonal:  Solving for rho, Initial residual = 0, Final residual = 0, No Iterations 0
smoothSolver:  Solving for Ux, Initial residual = 0.014117, Final residual = 3.85591e-06, No Iterations 5
smoothSolver:  Solving for Uy, Initial residual = 0.0143421, Final residual = 4.02962e-06, No Iterations 5
smoothSolver:  Solving for h, Initial residual = 0.0402943, Final residual = 3.20762e-06, No Iterations 5
GAMG:  Solving for p, Initial residual = 0.0794701, Final residual = 0.00217764, No Iterations 2
diagonal:  Solving for rho, Initial residual = 0, Final residual = 0, No Iterations 0
time step continuity errors : sum local = 2.58619e-05, global = -1.60558e-06, cumulative = -7.19607e-05
GAMG:  Solving for p, Initial residual = 0.00785116, Final residual = 2.81656e-07, No Iterations 7
diagonal:  Solving for rho, Initial residual = 0, Final residual = 0, No Iterations 0
time step continuity errors : sum local = 3.38611e-09, global = -6.16697e-10, cumulative = -7.19613e-05
smoothSolver:  Solving for epsilon, Initial residual = 0.0190364, Final residual = 2.61014e-06, No Iterations 5
smoothSolver:  Solving for k, Initial residual = 0.0201855, Final residual = 8.6751e-06, No Iterations 5
ExecutionTime = 0.17 s  ClockTime = 0 s

smoothSolver:  Solving for tracer0, Initial residual = 0.0149331, Final residual = 0.000602444, No Iterations 1
Courant Number mean: 0.209773 max: 0.994673
deltaT = 4.57662e-05
Time = 0.000892534

PIMPLE: iteration 1
diagonal:  Solving for rho, Initial residual = 0, Final residual = 0, No Iterations 0
smoothSolver:  Solving for Ux, Initial residual = 0.0137983, Final residual = 3.68742e-06, No Iterations 5
smoothSolver:  Solving for Uy, Initial residual = 0.0139872, Final residual = 3.78733e-06, No Iterations 5
smoothSolver:  Solving for h, Initial residual = 0.0322742, Final residual = 7.11004e-06, No Iterations 4
GAMG:  Solving for p, Initial residual = 0.0573881, Final residual = 0.00221221, No Iterations 2
diagonal:  Solving for rho, Initial residual = 0, Final residual = 0, No Iterations 0
time step continuity errors : sum local = 2.70328e-05, global = -2.44652e-06, cumulative = -7.44078e-05
GAMG:  Solving for p, Initial residual = 0.00629445, Final residual = 2.60399e-07, No Iterations 7
diagonal:  Solving for rho, Initial residual = 0, Final residual = 0, No Iterations 0
time step continuity errors : sum local = 3.23816e-09, global = 5.30676e-10, cumulative = -7.44073e-05
smoothSolver:  Solving for epsilon, Initial residual = 0.0186908, Final residual = 2.61677e-06, No Iterations 5
smoothSolver:  Solving for k, Initial residual = 0.0193829, Final residual = 8.60045e-06, No Iterations 5
ExecutionTime = 0.17 s  ClockTime = 0 s

smoothSolver:  Solving for tracer0, Initial residual = 0.0144689, Final residual = 0.000592651, No Iterations 1
Courant Number mean: 0.211037 max: 0.99585
deltaT = 4.59973e-05
Time = 0.000938531

PIMPLE: iteration 1
diagonal:  Solving for rho, Initial residual = 0, Final residual = 0, No Iterations 0
smoothSolver:  Solving for Ux, Initial residual = 0.0139581, Final residual = 4.30415e-06, No Iterations 5
smoothSolver:  Solving for Uy, Initial residual = 0.0141415, Final residual = 4.4395e-06, No Iterations 5
smoothSolver:  Solving for h, Initial residual = 0.0238759, Final residual = 7.12335e-06, No Iterations 4
GAMG:  Solving for p, Initial residual = 0.0334411, Final residual = 0.0015084, No Iterations 2
diagonal:  Solving for rho, Initial residual = 0, Final residual = 0, No Iterations 0
time step continuity errors : sum local = 1.89761e-05, global = -1.78374e-06, cumulative = -7.6191e-05
GAMG:  Solving for p, Initial residual = 0.00462307, Final residual = 8.45446e-07, No Iterations 6
diagonal:  Solving for rho, Initial residual = 0, Final residual = 0, No Iterations 0
time step continuity errors : sum local = 1.07689e-08, global = -2.85188e-09, cumulative = -7.61939e-05
smoothSolver:  Solving for epsilon, Initial residual = 0.0183155, Final residual = 2.67912e-06, No Iterations 5
smoothSolver:  Solving for k, Initial residual = 0.0185734, Final residual = 8.48801e-06, No Iterations 5
ExecutionTime = 0.18 s  ClockTime = 0 s

smoothSolver:  Solving for tracer0, Initial residual = 0.014058, Final residual = 0.000581295, No Iterations 1
Courant Number mean: 0.212622 max: 0.99809
deltaT = 4.59973e-05
Time = 0.000984529

PIMPLE: iteration 1
diagonal:  Solving for rho, Initial residual = 0, Final residual = 0, No Iterations 0
smoothSolver:  Solving for Ux, Initial residual = 0.0136354, Final residual = 4.75535e-06, No Iterations 5
smoothSolver:  Solving for Uy, Initial residual = 0.0139155, Final residual = 4.96982e-06, No Iterations 5
smoothSolver:  Solving for h, Initial residual = 0.0144336, Final residual = 5.88933e-06, No Iterations 4
GAMG:  Solving for p, Initial residual = 0.0291606, Final residual = 0.000962757, No Iterations 2
diagonal:  Solving for rho, Initial residual = 0, Final residual = 0, No Iterations 0
time step continuity errors : sum local = 1.22367e-05, global = -1.00895e-06, cumulative = -7.72028e-05
GAMG:  Solving for p, Initial residual = 0.00370032, Final residual = 5.4405e-07, No Iterations 6
diagonal:  Solving for rho, Initial residual = 0, Final residual = 0, No Iterations 0
time step continuity errors : sum local = 6.93705e-09, global = -1.29045e-09, cumulative = -7.72041e-05
smoothSolver:  Solving for epsilon, Initial residual = 0.0178046, Final residual = 2.61632e-06, No Iterations 5
smoothSolver:  Solving for k, Initial residual = 0.0176404, Final residual = 8.07734e-06, No Iterations 5
ExecutionTime = 0.18 s  ClockTime = 0 s

smoothSolver:  Solving for tracer0, Initial residual = 0.013546, Final residual = 0.000561637, No Iterations 1
Courant Number mean: 0.21317 max: 0.998668
deltaT = 4.59973e-05
Time = 0.00103053

PIMPLE: iteration 1
diagonal:  Solving for rho, Initial residual = 0, Final residual = 0, No Iterations 0
smoothSolver:  Solving for Ux, Initial residual = 0.0128417, Final residual = 4.63484e-06, No Iterations 5
smoothSolver:  Solving for Uy, Initial residual = 0.0128257, Final residual = 4.89816e-06, No Iterations 5
smoothSolver:  Solving for h, Initial residual = 0.0140458, Final residual = 5.18756e-06, No Iterations 4
GAMG:  Solving for p, Initial residual = 0.0400833, Final residual = 0.00139904, No Iterations 2
diagonal:  Solving for rho, Initial residual = 0, Final residual = 0, No Iterations 0
time step continuity errors : sum local = 1.77199e-05, global = -1.40908e-06, cumulative = -7.86132e-05
GAMG:  Solving for p, Initial residual = 0.00407495, Final residual = 8.22186e-07, No Iterations 6
diagonal:  Solving for rho, Initial residual = 0, Final residual = 0, No Iterations 0
time step continuity errors : sum local = 1.0383e-08, global = -2.73789e-09, cumulative = -7.8616e-05
smoothSolver:  Solving for epsilon, Initial residual = 0.0172715, Final residual = 2.46167e-06, No Iterations 5
smoothSolver:  Solving for k, Initial residual = 0.0167196, Final residual = 7.58605e-06, No Iterations 5
ExecutionTime = 0.19 s  ClockTime = 0 s

smoothSolver:  Solving for tracer0, Initial residual = 0.0131609, Final residual = 0.00054014, No Iterations 1
Courant Number mean: 0.2135 max: 0.99641
deltaT = 4.62344e-05
Time = 0.00107676

PIMPLE: iteration 1
diagonal:  Solving for rho, Initial residual = 0, Final residual = 0, No Iterations 0
smoothSolver:  Solving for Ux, Initial residual = 0.0116913, Final residual = 4.20989e-06, No Iterations 5
smoothSolver:  Solving for Uy, Initial residual = 0.0114422, Final residual = 4.48744e-06, No Iterations 5
smoothSolver:  Solving for h, Initial residual = 0.019003, Final residual = 6.29101e-06, No Iterations 4
GAMG:  Solving for p, Initial residual = 0.0416636, Final residual = 0.00153481, No Iterations 2
diagonal:  Solving for rho, Initial residual = 0, Final residual = 0, No Iterations 0
time step continuity errors : sum local = 1.93608e-05, global = -1.6317e-06, cumulative = -8.02477e-05
GAMG:  Solving for p, Initial residual = 0.00422168, Final residual = 8.34021e-07, No Iterations 6
diagonal:  Solving for rho, Initial residual = 0, Final residual = 0, No Iterations 0
time step continuity errors : sum local = 1.04817e-08, global = -2.71646e-09, cumulative = -8.02504e-05
smoothSolver:  Solving for epsilon, Initial residual = 0.0167991, Final residual = 2.45212e-06, No Iterations 5
smoothSolver:  Solving for k, Initial residual = 0.0159464, Final residual = 7.19833e-06, No Iterations 5
ExecutionTime = 0.19 s  ClockTime = 0 s

smoothSolver:  Solving for tracer0, Initial residual = 0.0128823, Final residual = 0.000538529, No Iterations 1
Courant Number mean: 0.214712 max: 0.996453
deltaT = 4.64752e-05
Time = 0.00112324

PIMPLE: iteration 1
diagonal:  Solving for rho, Initial residual = 0, Final residual = 0, No Iterations 0
smoothSolver:  Solving for Ux, Initial residual = 0.0107065, Final residual = 3.79377e-06, No Iterations 5
smoothSolver:  Solving for Uy, Initial residual = 0.0106884, Final residual = 4.05327e-06, No Iterations 5
smoothSolver:  Solving for h, Initial residual = 0.0193732, Final residual = 6.23037e-06, No Iterations 4
GAMG:  Solving for p, Initial residual = 0.03298, Final residual = 0.00123369, No Iterations 2
diagonal:  Solving for rho, Initial residual = 0, Final residual = 0, No Iterations 0
time step continuity errors : sum local = 1.55288e-05, global = -1.55457e-06, cumulative = -8.1805e-05
GAMG:  Solving for p, Initial residual = 0.00379729, Final residual = 6.44359e-07, No Iterations 6
diagonal:  Solving for rho, Initial residual = 0, Final residual = 0, No Iterations 0
time step continuity errors : sum local = 8.09238e-09, global = -1.55081e-09, cumulative = -8.18065e-05
smoothSolver:  Solving for epsilon, Initial residual = 0.0162644, Final residual = 2.35593e-06, No Iterations 5
smoothSolver:  Solving for k, Initial residual = 0.0152451, Final residual = 6.69683e-06, No Iterations 5
ExecutionTime = 0.2 s  ClockTime = 0 s

smoothSolver:  Solving for tracer0, Initial residual = 0.0126411, Final residual = 0.000536326, No Iterations 1
Courant Number mean: 0.215807 max: 1.01559
deltaT = 4.57565e-05
Time = 0.00116899

PIMPLE: iteration 1
diagonal:  Solving for rho, Initial residual = 0, Final residual = 0, No Iterations 0
smoothSolver:  Solving for Ux, Initial residual = 0.0102526, Final residual = 3.23676e-06, No Iterations 5
smoothSolver:  Solving for Uy, Initial residual = 0.0104157, Final residual = 3.45011e-06, No Iterations 5
smoothSolver:  Solving for h, Initial residual = 0.015963, Final residual = 4.78974e-06, No Iterations 4
GAMG:  Solving for p, Initial residual = 0.0221438, Final residual = 0.00078414, No Iterations 2
diagonal:  Solving for rho, Initial residual = 0, Final residual = 0, No Iterations 0
time step continuity errors : sum local = 9.70877e-06, global = -1.08975e-06, cumulative = -8.28962e-05
GAMG:  Solving for p, Initial residual = 0.00308198, Final residual = 4.5681e-07, No Iterations 6
diagonal:  Solving for rho, Initial residual = 0, Final residual = 0, No Iterations 0
time step continuity errors : sum local = 5.66769e-09, global = -7.13306e-10, cumulative = -8.2897e-05
smoothSolver:  Solving for epsilon, Initial residual = 0.0154968, Final residual = 9.57497e-06, No Iterations 4
smoothSolver:  Solving for k, Initial residual = 0.0142747, Final residual = 5.44309e-06, No Iterations 5
ExecutionTime = 0.2 s  ClockTime = 0 s

smoothSolver:  Solving for tracer0, Initial residual = 0.0121807, Final residual = 0.000496605, No Iterations 1
Courant Number mean: 0.212407 max: 1.01378
deltaT = 4.50562e-05
Time = 0.00121405

PIMPLE: iteration 1
diagonal:  Solving for rho, Initial residual = 0, Final residual = 0, No Iterations 0
smoothSolver:  Solving for Ux, Initial residual = 0.0101091, Final residual = 2.89566e-06, No Iterations 5
smoothSolver:  Solving for Uy, Initial residual = 0.010108, Final residual = 3.0918e-06, No Iterations 5
smoothSolver:  Solving for h, Initial residual = 0.0112501, Final residual = 3.87702e-06, No Iterations 4
GAMG:  Solving for p, Initial residual = 0.0150904, Final residual = 0.000642915, No Iterations 2
diagonal:  Solving for rho, Initial residual = 0, Final residual = 0, No Iterations 0
time step continuity errors : sum local = 7.86509e-06, global = -8.04281e-07, cumulative = -8.37012e-05
GAMG:  Solving for p, Initial residual = 0.00262016, Final residual = 3.81197e-07, No Iterations 6
diagonal:  Solving for rho, Initial residual = 0, Final residual = 0, No Iterations 0
time step continuity errors : sum local = 4.67964e-09, global = -5.10319e-10, cumulative = -8.37018e-05
smoothSolver:  Solving for epsilon, Initial residual = 0.0147006, Final residual = 8.04986e-06, No Iterations 4
smoothSolver:  Solving for k, Initial residual = 0.0133604, Final residual = 4.49262e-06, No Iterations 5
ExecutionTime = 0.21 s  ClockTime = 0 s

smoothSolver:  Solving for tracer0, Initial residual = 0.0117238, Final residual = 0.000461818, No Iterations 1
Courant Number mean: 0.209143 max: 1.012
deltaT = 4.45987e-05
Time = 0.00125865

PIMPLE: iteration 1
diagonal:  Solving for rho, Initial residual = 0, Final residual = 0, No Iterations 0
smoothSolver:  Solving for Ux, Initial residual = 0.00964042, Final residual = 2.65592e-06, No Iterations 5
smoothSolver:  Solving for Uy, Initial residual = 0.00958053, Final residual = 2.85719e-06, No Iterations 5
smoothSolver:  Solving for h, Initial residual = 0.0081878, Final residual = 2.90868e-06, No Iterations 4
GAMG:  Solving for p, Initial residual = 0.0215062, Final residual = 0.000750523, No Iterations 2
diagonal:  Solving for rho, Initial residual = 0, Final residual = 0, No Iterations 0
time step continuity errors : sum local = 9.13118e-06, global = -7.9457e-07, cumulative = -8.44963e-05
GAMG:  Solving for p, Initial residual = 0.00267862, Final residual = 3.15506e-07, No Iterations 6
diagonal:  Solving for rho, Initial residual = 0, Final residual = 0, No Iterations 0
time step continuity errors : sum local = 3.85524e-09, global = -7.28381e-10, cumulative = -8.44971e-05
smoothSolver:  Solving for epsilon, Initial residual = 0.0140227, Final residual = 7.05275e-06, No Iterations 4
smoothSolver:  Solving for k, Initial residual = 0.012558, Final residual = 3.75757e-06, No Iterations 5
ExecutionTime = 0.21 s  ClockTime = 0 s

smoothSolver:  Solving for tracer0, Initial residual = 0.0113998, Final residual = 0.00043485, No Iterations 1
Courant Number mean: 0.206984 max: 1.01453
deltaT = 4.39264e-05
Time = 0.00130257

PIMPLE: iteration 1
diagonal:  Solving for rho, Initial residual = 0, Final residual = 0, No Iterations 0
smoothSolver:  Solving for Ux, Initial residual = 0.00895361, Final residual = 8.78764e-06, No Iterations 4
smoothSolver:  Solving for Uy, Initial residual = 0.00887647, Final residual = 9.4362e-06, No Iterations 4
smoothSolver:  Solving for h, Initial residual = 0.0108791, Final residual = 2.76661e-06, No Iterations 4
GAMG:  Solving for p, Initial residual = 0.0266432, Final residual = 0.000791192, No Iterations 2
diagonal:  Solving for rho, Initial residual = 0, Final residual = 0, No Iterations 0
time step continuity errors : sum local = 9.54765e-06, global = -8.11957e-07, cumulative = -8.5309e-05
GAMG:  Solving for p, Initial residual = 0.00271271, Final residual = 9.24784e-07, No Iterations 5
diagonal:  Solving for rho, Initial residual = 0, Final residual = 0, No Iterations 0
time step continuity errors : sum local = 1.12282e-08, global = 2.37922e-09, cumulative = -8.53066e-05
smoothSolver:  Solving for epsilon, Initial residual = 0.0132905, Final residual = 5.97068e-06, No Iterations 4
smoothSolver:  Solving for k, Initial residual = 0.0117322, Final residual = 3.02319e-06, No Iterations 5
ExecutionTime = 0.22 s  ClockTime = 0 s

smoothSolver:  Solving for tracer0, Initial residual = 0.0110395, Final residual = 0.000403675, No Iterations 1
Courant Number mean: 0.203783 max: 1.01157
deltaT = 4.34871e-05
Time = 0.00134606

PIMPLE: iteration 1
diagonal:  Solving for rho, Initial residual = 0, Final residual = 0, No Iterations 0
smoothSolver:  Solving for Ux, Initial residual = 0.00848207, Final residual = 7.56493e-06, No Iterations 4
smoothSolver:  Solving for Uy, Initial residual = 0.00836545, Final residual = 8.09805e-06, No Iterations 4
smoothSolver:  Solving for h, Initial residual = 0.0124568, Final residual = 3.32681e-06, No Iterations 4
GAMG:  Solving for p, Initial residual = 0.0276228, Final residual = 0.000738257, No Iterations 2
diagonal:  Solving for rho, Initial residual = 0, Final residual = 0, No Iterations 0
time step continuity errors : sum local = 8.89453e-06, global = -8.20059e-07, cumulative = -8.61267e-05
GAMG:  Solving for p, Initial residual = 0.00263082, Final residual = 7.89923e-07, No Iterations 5
diagonal:  Solving for rho, Initial residual = 0, Final residual = 0, No Iterations 0
time step continuity errors : sum local = 9.57172e-09, global = 2.20736e-09, cumulative = -8.61245e-05
smoothSolver:  Solving for epsilon, Initial residual = 0.0126689, Final residual = 5.09211e-06, No Iterations 4
smoothSolver:  Solving for k, Initial residual = 0.0110262, Final residual = 2.50944e-06, No Iterations 5
ExecutionTime = 0.22 s  ClockTime = 0 s

smoothSolver:  Solving for tracer0, Initial residual = 0.0107906, Final residual = 0.000383361, No Iterations 1
Courant Number mean: 0.201586 max: 1.01263
deltaT = 4.28413e-05
Time = 0.0013889

PIMPLE: iteration 1
diagonal:  Solving for rho, Initial residual = 0, Final residual = 0, No Iterations 0
smoothSolver:  Solving for Ux, Initial residual = 0.00828804, Final residual = 6.25187e-06, No Iterations 4
smoothSolver:  Solving for Uy, Initial residual = 0.0080846, Final residual = 6.67027e-06, No Iterations 4
smoothSolver:  Solving for h, Initial residual = 0.0123706, Final residual = 3.37926e-06, No Iterations 4
GAMG:  Solving for p, Initial residual = 0.0247181, Final residual = 0.000610496, No Iterations 2
diagonal:  Solving for rho, Initial residual = 0, Final residual = 0, No Iterations 0
time step continuity errors : sum local = 7.31148e-06, global = -7.34189e-07, cumulative = -8.68587e-05
GAMG:  Solving for p, Initial residual = 0.00237946, Final residual = 6.87505e-07, No Iterations 5
diagonal:  Solving for rho, Initial residual = 0, Final residual = 0, No Iterations 0
time step continuity errors : sum local = 8.27885e-09, global = 1.68432e-09, cumulative = -8.6857e-05
smoothSolver:  Solving for epsilon, Initial residual = 0.0119929, Final residual = 4.25898e-06, No Iterations 4
smoothSolver:  Solving for k, Initial residual = 0.0103193, Final residual = 8.66925e-06, No Iterations 4
ExecutionTime = 0.23 s  ClockTime = 0 s

smoothSolver:  Solving for tracer0, Initial residual = 0.0105152, Final residual = 0.00036029, No Iterations 1
Courant Number mean: 0.19838 max: 1.00685
deltaT = 4.26292e-05
Time = 0.00143153

PIMPLE: iteration 1
diagonal:  Solving for rho, Initial residual = 0, Final residual = 0, No Iterations 0
smoothSolver:  Solving for Ux, Initial residual = 0.00825235, Final residual = 5.5063e-06, No Iterations 4
smoothSolver:  Solving for Uy, Initial residual = 0.00803723, Final residual = 5.82871e-06, No Iterations 4
smoothSolver:  Solving for h, Initial residual = 0.010958, Final residual = 2.8806e-06, No Iterations 4
GAMG:  Solving for p, Initial residual = 0.018641, Final residual = 0.000486624, No Iterations 2
diagonal:  Solving for rho, Initial residual = 0, Final residual = 0, No Iterations 0
time step continuity errors : sum local = 5.83837e-06, global = -6.23281e-07, cumulative = -8.74803e-05
GAMG:  Solving for p, Initial residual = 0.00206149, Final residual = 6.4445e-07, No Iterations 5
diagonal:  Solving for rho, Initial residual = 0, Final residual = 0, No Iterations 0
time step continuity errors : sum local = 7.76117e-09, global = 1.24755e-09, cumulative = -8.7479e-05
smoothSolver:  Solving for epsilon, Initial residual = 0.0114652, Final residual = 3.69088e-06, No Iterations 4
smoothSolver:  Solving for k, Initial residual = 0.00974217, Final residual = 7.3668e-06, No Iterations 4
ExecutionTime = 0.23 s  ClockTime = 0 s

smoothSolver:  Solving for tracer0, Initial residual = 0.010316, Final residual = 0.000343137, No Iterations 1
Courant Number mean: 0.197108 max: 1.01002
deltaT = 4.22092e-05
Time = 0.00147374

PIMPLE: iteration 1
diagonal:  Solving for rho, Initial residual = 0, Final residual = 0, No Iterations 0
smoothSolver:  Solving for Ux, Initial residual = 0.00811067, Final residual = 4.86873e-06, No Iterations 4
smoothSolver:  Solving for Uy, Initial residual = 0.00786084, Final residual = 5.10449e-06, No Iterations 4
smoothSolver:  Solving for h, Initial residual = 0.00862605, Final residual = 2.03773e-06, No Iterations 4
GAMG:  Solving for p, Initial residual = 0.0129887, Final residual = 0.000410966, No Iterations 2
diagonal:  Solving for rho, Initial residual = 0, Final residual = 0, No Iterations 0
time step continuity errors : sum local = 4.90811e-06, global = -5.06225e-07, cumulative = -8.79852e-05
GAMG:  Solving for p, Initial residual = 0.00184277, Final residual = 6.28638e-07, No Iterations 5
diagonal:  Solving for rho, Initial residual = 0, Final residual = 0, No Iterations 0
time step continuity errors : sum local = 7.52718e-09, global = 9.32922e-10, cumulative = -8.79843e-05
smoothSolver:  Solving for epsilon, Initial residual = 0.0108746, Final residual = 3.10436e-06, No Iterations 4
smoothSolver:  Solving for k, Initial residual = 0.00913211, Final residual = 6.11079e-06, No Iterations 4
ExecutionTime = 0.24 s  ClockTime = 0 s

smoothSolver:  Solving for tracer0, Initial residual = 0.0100637, Final residual = 0.000318555, No Iterations 1
Courant Number mean: 0.194852 max: 1.00751
deltaT = 4.17954e-05
Time = 0.00151554

PIMPLE: iteration 1
diagonal:  Solving for rho, Initial residual = 0, Final residual = 0, No Iterations 0
smoothSolver:  Solving for Ux, Initial residual = 0.00784133, Final residual = 4.37324e-06, No Iterations 4
smoothSolver:  Solving for Uy, Initial residual = 0.0075657, Final residual = 4.55599e-06, No Iterations 4
smoothSolver:  Solving for h, Initial residual = 0.00645535, Final residual = 8.81768e-06, No Iterations 3
GAMG:  Solving for p, Initial residual = 0.0122056, Final residual = 0.000388576, No Iterations 2
diagonal:  Solving for rho, Initial residual = 0, Final residual = 0, No Iterations 0
time step continuity errors : sum local = 4.61094e-06, global = -4.3092e-07, cumulative = -8.84152e-05
GAMG:  Solving for p, Initial residual = 0.00169654, Final residual = 6.57002e-07, No Iterations 5
diagonal:  Solving for rho, Initial residual = 0, Final residual = 0, No Iterations 0
time step continuity errors : sum local = 7.80433e-09, global = 8.16515e-10, cumulative = -8.84144e-05
smoothSolver:  Solving for epsilon, Initial residual = 0.0102608, Final residual = 2.61602e-06, No Iterations 4
smoothSolver:  Solving for k, Initial residual = 0.00856018, Final residual = 4.95081e-06, No Iterations 4
ExecutionTime = 0.24 s  ClockTime = 0 s

smoothSolver:  Solving for tracer0, Initial residual = 0.00986878, Final residual = 0.000298713, No Iterations 1
Courant Number mean: 0.192617 max: 1.00459
deltaT = 4.15905e-05
Time = 0.00155713

PIMPLE: iteration 1
diagonal:  Solving for rho, Initial residual = 0, Final residual = 0, No Iterations 0
smoothSolver:  Solving for Ux, Initial residual = 0.00752962, Final residual = 4.04001e-06, No Iterations 4
smoothSolver:  Solving for Uy, Initial residual = 0.00723554, Final residual = 4.19393e-06, No Iterations 4
smoothSolver:  Solving for h, Initial residual = 0.00633888, Final residual = 8.78748e-06, No Iterations 3
GAMG:  Solving for p, Initial residual = 0.0142816, Final residual = 0.000405648, No Iterations 2
diagonal:  Solving for rho, Initial residual = 0, Final residual = 0, No Iterations 0
time step continuity errors : sum local = 4.79145e-06, global = -3.83685e-07, cumulative = -8.87981e-05
GAMG:  Solving for p, Initial residual = 0.00166644, Final residual = 6.86363e-07, No Iterations 5
diagonal:  Solving for rho, Initial residual = 0, Final residual = 0, No Iterations 0
time step continuity errors : sum local = 8.10484e-09, global = 8.2867e-10, cumulative = -8.87973e-05
smoothSolver:  Solving for epsilon, Initial residual = 0.00972767, Final residual = 2.24435e-06, No Iterations 4
smoothSolver:  Solving for k, Initial residual = 0.00806209, Final residual = 4.13312e-06, No Iterations 4
ExecutionTime = 0.25 s  ClockTime = 0 s

smoothSolver:  Solving for tracer0, Initial residual = 0.00973363, Final residual = 0.000286024, No Iterations 1
Courant Number mean: 0.191348 max: 1.00613
deltaT = 4.13866e-05
Time = 0.00159851

PIMPLE: iteration 1
diagonal:  Solving for rho, Initial residual = 0, Final residual = 0, No Iterations 0
smoothSolver:  Solving for Ux, Initial residual = 0.00720454, Final residual = 3.73556e-06, No Iterations 4
smoothSolver:  Solving for Uy, Initial residual = 0.00691922, Final residual = 3.86858e-06, No Iterations 4
smoothSolver:  Solving for h, Initial residual = 0.00732126, Final residual = 8.59825e-06, No Iterations 3
GAMG:  Solving for p, Initial residual = 0.014571, Final residual = 0.000403232, No Iterations 2
diagonal:  Solving for rho, Initial residual = 0, Final residual = 0, No Iterations 0
time step continuity errors : sum local = 4.73549e-06, global = -3.70055e-07, cumulative = -8.91673e-05
GAMG:  Solving for p, Initial residual = 0.00164701, Final residual = 7.03928e-07, No Iterations 5
diagonal:  Solving for rho, Initial residual = 0, Final residual = 0, No Iterations 0
time step continuity errors : sum local = 8.26225e-09, global = 8.82128e-10, cumulative = -8.91664e-05
smoothSolver:  Solving for epsilon, Initial residual = 0.00919795, Final residual = 1.91899e-06, No Iterations 4
smoothSolver:  Solving for k, Initial residual = 0.00758719, Final residual = 3.44292e-06, No Iterations 4
ExecutionTime = 0.25 s  ClockTime = 0 s

smoothSolver:  Solving for tracer0, Initial residual = 0.00957813, Final residual = 0.00027002, No Iterations 1
Courant Number mean: 0.190043 max: 1.00709
deltaT = 4.11838e-05
Time = 0.0016397

PIMPLE: iteration 1
diagonal:  Solving for rho, Initial residual = 0, Final residual = 0, No Iterations 0
smoothSolver:  Solving for Ux, Initial residual = 0.00690682, Final residual = 3.43699e-06, No Iterations 4
smoothSolver:  Solving for Uy, Initial residual = 0.00666346, Final residual = 3.55232e-06, No Iterations 4
smoothSolver:  Solving for h, Initial residual = 0.00752691, Final residual = 7.88758e-06, No Iterations 3
GAMG:  Solving for p, Initial residual = 0.0138345, Final residual = 0.000383781, No Iterations 2
diagonal:  Solving for rho, Initial residual = 0, Final residual = 0, No Iterations 0
time step continuity errors : sum local = 4.48037e-06, global = -3.75e-07, cumulative = -8.95414e-05
GAMG:  Solving for p, Initial residual = 0.00160921, Final residual = 6.80324e-07, No Iterations 5
diagonal:  Solving for rho, Initial residual = 0, Final residual = 0, No Iterations 0
time step continuity errors : sum local = 7.93809e-09, global = 8.57442e-10, cumulative = -8.95406e-05
smoothSolver:  Solving for epsilon, Initial residual = 0.00867485, Final residual = 1.6249e-06, No Iterations 4
smoothSolver:  Solving for k, Initial residual = 0.0071456, Final residual = 2.86908e-06, No Iterations 4
ExecutionTime = 0.25 s  ClockTime = 1 s

smoothSolver:  Solving for tracer0, Initial residual = 0.00943738, Final residual = 0.000260766, No Iterations 1
Courant Number mean: 0.188737 max: 1.00811
deltaT = 4.0782e-05
Time = 0.00168048

PIMPLE: iteration 1
diagonal:  Solving for rho, Initial residual = 0, Final residual = 0, No Iterations 0
smoothSolver:  Solving for Ux, Initial residual = 0.00667472, Final residual = 3.07257e-06, No Iterations 4
smoothSolver:  Solving for Uy, Initial residual = 0.00645828, Final residual = 3.15657e-06, No Iterations 4
smoothSolver:  Solving for h, Initial residual = 0.00691086, Final residual = 6.89841e-06, No Iterations 3
GAMG:  Solving for p, Initial residual = 0.0119619, Final residual = 0.000345791, No Iterations 2
diagonal:  Solving for rho, Initial residual = 0, Final residual = 0, No Iterations 0
time step continuity errors : sum local = 4.00187e-06, global = -3.58991e-07, cumulative = -8.98996e-05
GAMG:  Solving for p, Initial residual = 0.00153198, Final residual = 5.9857e-07, No Iterations 5
diagonal:  Solving for rho, Initial residual = 0, Final residual = 0, No Iterations 0
time step continuity errors : sum local = 6.93311e-09, global = 7.02443e-10, cumulative = -8.98989e-05
smoothSolver:  Solving for epsilon, Initial residual = 0.00814577, Final residual = 8.90366e-06, No Iterations 3
smoothSolver:  Solving for k, Initial residual = 0.00669707, Final residual = 2.28513e-06, No Iterations 4
ExecutionTime = 0.26 s  ClockTime = 1 s

smoothSolver:  Solving for tracer0, Initial residual = 0.009247, Final residual = 0.000250877, No Iterations 1
Courant Number mean: 0.186525 max: 1.00464
deltaT = 4.0583e-05
Time = 0.00172106

PIMPLE: iteration 1
diagonal:  Solving for rho, Initial residual = 0, Final residual = 0, No Iterations 0
smoothSolver:  Solving for Ux, Initial residual = 0.00653554, Final residual = 2.8082e-06, No Iterations 4
smoothSolver:  Solving for Uy, Initial residual = 0.00631595, Final residual = 2.867e-06, No Iterations 4
smoothSolver:  Solving for h, Initial residual = 0.00585606, Final residual = 6.17892e-06, No Iterations 3
GAMG:  Solving for p, Initial residual = 0.0105407, Final residual = 0.00031747, No Iterations 2
diagonal:  Solving for rho, Initial residual = 0, Final residual = 0, No Iterations 0
time step continuity errors : sum local = 3.66322e-06, global = -3.14135e-07, cumulative = -9.0213e-05
GAMG:  Solving for p, Initial residual = 0.0014281, Final residual = 5.11849e-07, No Iterations 5
diagonal:  Solving for rho, Initial residual = 0, Final residual = 0, No Iterations 0
time step continuity errors : sum local = 5.91389e-09, global = 4.98165e-10, cumulative = -9.02125e-05
smoothSolver:  Solving for epsilon, Initial residual = 0.00765244, Final residual = 7.6724e-06, No Iterations 3
smoothSolver:  Solving for k, Initial residual = 0.00632056, Final residual = 1.90004e-06, No Iterations 4
ExecutionTime = 0.26 s  ClockTime = 1 s

smoothSolver:  Solving for tracer0, Initial residual = 0.00911152, Final residual = 0.000240997, No Iterations 1
Courant Number mean: 0.185204 max: 1.00548
deltaT = 4.03851e-05
Time = 0.00176145

PIMPLE: iteration 1
diagonal:  Solving for rho, Initial residual = 0, Final residual = 0, No Iterations 0
smoothSolver:  Solving for Ux, Initial residual = 0.00639899, Final residual = 2.55668e-06, No Iterations 4
smoothSolver:  Solving for Uy, Initial residual = 0.00617942, Final residual = 2.59996e-06, No Iterations 4
smoothSolver:  Solving for h, Initial residual = 0.00513878, Final residual = 5.63224e-06, No Iterations 3
GAMG:  Solving for p, Initial residual = 0.0113398, Final residual = 0.000309391, No Iterations 2
diagonal:  Solving for rho, Initial residual = 0, Final residual = 0, No Iterations 0
time step continuity errors : sum local = 3.56409e-06, global = -2.64526e-07, cumulative = -9.0477e-05
GAMG:  Solving for p, Initial residual = 0.00137544, Final residual = 4.30804e-07, No Iterations 5
diagonal:  Solving for rho, Initial residual = 0, Final residual = 0, No Iterations 0
time step continuity errors : sum local = 4.97235e-09, global = 3.86148e-10, cumulative = -9.04767e-05
smoothSolver:  Solving for epsilon, Initial residual = 0.00718098, Final residual = 6.62219e-06, No Iterations 3
smoothSolver:  Solving for k, Initial residual = 0.00597016, Final residual = 9.66001e-06, No Iterations 3
ExecutionTime = 0.27 s  ClockTime = 1 s

smoothSolver:  Solving for tracer0, Initial residual = 0.00898255, Final residual = 0.000234668, No Iterations 1
Courant Number mean: 0.183873 max: 1.00575
deltaT = 4.01881e-05
Time = 0.00180163

PIMPLE: iteration 1
diagonal:  Solving for rho, Initial residual = 0, Final residual = 0, No Iterations 0
smoothSolver:  Solving for Ux, Initial residual = 0.00626996, Final residual = 2.32924e-06, No Iterations 4
smoothSolver:  Solving for Uy, Initial residual = 0.00603827, Final residual = 2.35452e-06, No Iterations 4
smoothSolver:  Solving for h, Initial residual = 0.00551773, Final residual = 5.22208e-06, No Iterations 3
GAMG:  Solving for p, Initial residual = 0.0122847, Final residual = 0.000315824, No Iterations 2
diagonal:  Solving for rho, Initial residual = 0, Final residual = 0, No Iterations 0
time step continuity errors : sum local = 3.63515e-06, global = -2.2425e-07, cumulative = -9.07009e-05
GAMG:  Solving for p, Initial residual = 0.00133218, Final residual = 3.75491e-07, No Iterations 5
diagonal:  Solving for rho, Initial residual = 0, Final residual = 0, No Iterations 0
time step continuity errors : sum local = 4.33053e-09, global = 3.24691e-10, cumulative = -9.07006e-05
smoothSolver:  Solving for epsilon, Initial residual = 0.00672598, Final residual = 5.58591e-06, No Iterations 3
smoothSolver:  Solving for k, Initial residual = 0.0056409, Final residual = 8.53106e-06, No Iterations 3
ExecutionTime = 0.27 s  ClockTime = 1 s

smoothSolver:  Solving for tracer0, Initial residual = 0.00885808, Final residual = 0.000227431, No Iterations 1
Courant Number mean: 0.182545 max: 1.00547
deltaT = 3.9992e-05
Time = 0.00184163

PIMPLE: iteration 1
diagonal:  Solving for rho, Initial residual = 0, Final residual = 0, No Iterations 0
smoothSolver:  Solving for Ux, Initial residual = 0.00615334, Final residual = 2.11682e-06, No Iterations 4
smoothSolver:  Solving for Uy, Initial residual = 0.00589518, Final residual = 2.13215e-06, No Iterations 4
smoothSolver:  Solving for h, Initial residual = 0.00602734, Final residual = 4.97484e-06, No Iterations 3
GAMG:  Solving for p, Initial residual = 0.0126337, Final residual = 0.000321767, No Iterations 2
diagonal:  Solving for rho, Initial residual = 0, Final residual = 0, No Iterations 0
time step continuity errors : sum local = 3.69983e-06, global = -1.98885e-07, cumulative = -9.08995e-05
GAMG:  Solving for p, Initial residual = 0.00128992, Final residual = 3.49346e-07, No Iterations 5
diagonal:  Solving for rho, Initial residual = 0, Final residual = 0, No Iterations 0
time step continuity errors : sum local = 4.02453e-09, global = 2.85149e-10, cumulative = -9.08992e-05
smoothSolver:  Solving for epsilon, Initial residual = 0.00629501, Final residual = 4.72754e-06, No Iterations 3
smoothSolver:  Solving for k, Initial residual = 0.0053454, Final residual = 7.69884e-06, No Iterations 3
ExecutionTime = 0.28 s  ClockTime = 1 s

smoothSolver:  Solving for tracer0, Initial residual = 0.00872183, Final residual = 0.000220842, No Iterations 1
Courant Number mean: 0.181213 max: 1.0047
deltaT = 3.97969e-05
Time = 0.00188142

PIMPLE: iteration 1
diagonal:  Solving for rho, Initial residual = 0, Final residual = 0, No Iterations 0
smoothSolver:  Solving for Ux, Initial residual = 0.00605274, Final residual = 9.68992e-06, No Iterations 3
smoothSolver:  Solving for Uy, Initial residual = 0.00576193, Final residual = 9.78967e-06, No Iterations 3
smoothSolver:  Solving for h, Initial residual = 0.00614574, Final residual = 4.76656e-06, No Iterations 3
GAMG:  Solving for p, Initial residual = 0.0123231, Final residual = 0.000315562, No Iterations 2
diagonal:  Solving for rho, Initial residual = 0, Final residual = 0, No Iterations 0
time step continuity errors : sum local = 3.6236e-06, global = -1.7654e-07, cumulative = -9.10757e-05
GAMG:  Solving for p, Initial residual = 0.00124574, Final residual = 3.41466e-07, No Iterations 5
diagonal:  Solving for rho, Initial residual = 0, Final residual = 0, No Iterations 0
time step continuity errors : sum local = 3.92698e-09, global = 2.14458e-10, cumulative = -9.10755e-05
smoothSolver:  Solving for epsilon, Initial residual = 0.00589268, Final residual = 4.03163e-06, No Iterations 3
smoothSolver:  Solving for k, Initial residual = 0.00508226, Final residual = 7.2274e-06, No Iterations 3
ExecutionTime = 0.28 s  ClockTime = 1 s

smoothSolver:  Solving for tracer0, Initial residual = 0.008612, Final residual = 0.000217394, No Iterations 1
Courant Number mean: 0.179874 max: 1.00344
deltaT = 3.96028e-05
Time = 0.00192103

PIMPLE: iteration 1
diagonal:  Solving for rho, Initial residual = 0, Final residual = 0, No Iterations 0
smoothSolver:  Solving for Ux, Initial residual = 0.00595944, Final residual = 8.90846e-06, No Iterations 3
smoothSolver:  Solving for Uy, Initial residual = 0.0056426, Final residual = 9.02041e-06, No Iterations 3
smoothSolver:  Solving for h, Initial residual = 0.00586493, Final residual = 4.57533e-06, No Iterations 3
GAMG:  Solving for p, Initial residual = 0.0109203, Final residual = 0.000295846, No Iterations 2
diagonal:  Solving for rho, Initial residual = 0, Final residual = 0, No Iterations 0
time step continuity errors : sum local = 3.391e-06, global = -1.53341e-07, cumulative = -9.12288e-05
GAMG:  Solving for p, Initial residual = 0.00116959, Final residual = 3.41721e-07, No Iterations 5
diagonal:  Solving for rho, Initial residual = 0, Final residual = 0, No Iterations 0
time step continuity errors : sum local = 3.92044e-09, global = 1.83598e-10, cumulative = -9.12287e-05
smoothSolver:  Solving for epsilon, Initial residual = 0.00551204, Final residual = 3.50253e-06, No Iterations 3
smoothSolver:  Solving for k, Initial residual = 0.00484932, Final residual = 7.00031e-06, No Iterations 3
ExecutionTime = 0.29 s  ClockTime = 1 s

smoothSolver:  Solving for tracer0, Initial residual = 0.00851285, Final residual = 0.000213459, No Iterations 1
Courant Number mean: 0.178521 max: 1.00171
deltaT = 3.96028e-05
Time = 0.00196063

PIMPLE: iteration 1
diagonal:  Solving for rho, Initial residual = 0, Final residual = 0, No Iterations 0
smoothSolver:  Solving for Ux, Initial residual = 0.00589405, Final residual = 8.3857e-06, No Iterations 3
smoothSolver:  Solving for Uy, Initial residual = 0.00555813, Final residual = 8.51354e-06, No Iterations 3
smoothSolver:  Solving for h, Initial residual = 0.00534612, Final residual = 4.52094e-06, No Iterations 3
GAMG:  Solving for p, Initial residual = 0.00939338, Final residual = 0.000269963, No Iterations 2
diagonal:  Solving for rho, Initial residual = 0, Final residual = 0, No Iterations 0
time step continuity errors : sum local = 3.09661e-06, global = -1.29608e-07, cumulative = -9.13583e-05
GAMG:  Solving for p, Initial residual = 0.00112148, Final residual = 3.72828e-07, No Iterations 5
diagonal:  Solving for rho, Initial residual = 0, Final residual = 0, No Iterations 0
time step continuity errors : sum local = 4.27601e-09, global = 1.56973e-10, cumulative = -9.13581e-05
smoothSolver:  Solving for epsilon, Initial residual = 0.00517628, Final residual = 3.13326e-06, No Iterations 3
smoothSolver:  Solving for k, Initial residual = 0.00467842, Final residual = 7.09862e-06, No Iterations 3
ExecutionTime = 0.29 s  ClockTime = 1 s

smoothSolver:  Solving for tracer0, Initial residual = 0.00842705, Final residual = 0.000215663, No Iterations 1
Courant Number mean: 0.178016 max: 1.00447
deltaT = 3.94087e-05
Time = 0.00200004

PIMPLE: iteration 1
diagonal:  Solving for rho, Initial residual = 0, Final residual = 0, No Iterations 0
smoothSolver:  Solving for Ux, Initial residual = 0.00577985, Final residual = 7.74855e-06, No Iterations 3
smoothSolver:  Solving for Uy, Initial residual = 0.00543316, Final residual = 7.88706e-06, No Iterations 3
smoothSolver:  Solving for h, Initial residual = 0.00474897, Final residual = 4.49134e-06, No Iterations 3
GAMG:  Solving for p, Initial residual = 0.0085669, Final residual = 0.000256463, No Iterations 2
diagonal:  Solving for rho, Initial residual = 0, Final residual = 0, No Iterations 0
time step continuity errors : sum local = 2.93098e-06, global = -1.01668e-07, cumulative = -9.14598e-05
GAMG:  Solving for p, Initial residual = 0.00110267, Final residual = 3.9009e-07, No Iterations 5
diagonal:  Solving for rho, Initial residual = 0, Final residual = 0, No Iterations 0
time step continuity errors : sum local = 4.45794e-09, global = 1.15368e-10, cumulative = -9.14597e-05
smoothSolver:  Solving for epsilon, Initial residual = 0.00484503, Final residual = 2.73567e-06, No Iterations 3
smoothSolver:  Solving for k, Initial residual = 0.00451936, Final residual = 7.13067e-06, No Iterations 3
ExecutionTime = 0.3 s  ClockTime = 1 s

smoothSolver:  Solving for tracer0, Initial residual = 0.00828982, Final residual = 0.000217471, No Iterations 1
Courant Number mean: 0.17662 max: 1.00198
deltaT = 3.94087e-05
Time = 0.00203945

PIMPLE: iteration 1
diagonal:  Solving for rho, Initial residual = 0, Final residual = 0, No Iterations 0
smoothSolver:  Solving for Ux, Initial residual = 0.00567376, Final residual = 7.33531e-06, No Iterations 3
smoothSolver:  Solving for Uy, Initial residual = 0.00533039, Final residual = 7.48102e-06, No Iterations 3
smoothSolver:  Solving for h, Initial residual = 0.00447269, Final residual = 4.57461e-06, No Iterations 3
GAMG:  Solving for p, Initial residual = 0.00859835, Final residual = 0.00025217, No Iterations 2
diagonal:  Solving for rho, Initial residual = 0, Final residual = 0, No Iterations 0
time step continuity errors : sum local = 2.8814e-06, global = -7.16605e-08, cumulative = -9.15313e-05
GAMG:  Solving for p, Initial residual = 0.00109901, Final residual = 4.14771e-07, No Iterations 5
diagonal:  Solving for rho, Initial residual = 0, Final residual = 0, No Iterations 0
time step continuity errors : sum local = 4.73584e-09, global = 7.18611e-11, cumulative = -9.15313e-05
smoothSolver:  Solving for epsilon, Initial residual = 0.00457121, Final residual = 2.44947e-06, No Iterations 3
smoothSolver:  Solving for k, Initial residual = 0.00440944, Final residual = 7.30817e-06, No Iterations 3
ExecutionTime = 0.3 s  ClockTime = 1 s

smoothSolver:  Solving for tracer0, Initial residual = 0.00818827, Final residual = 0.000220431, No Iterations 1
Courant Number mean: 0.176089 max: 1.00413
deltaT = 3.92145e-05
Time = 0.00207866

PIMPLE: iteration 1
diagonal:  Solving for rho, Initial residual = 0, Final residual = 0, No Iterations 0
smoothSolver:  Solving for Ux, Initial residual = 0.00553242, Final residual = 6.83085e-06, No Iterations 3
smoothSolver:  Solving for Uy, Initial residual = 0.00519668, Final residual = 6.94568e-06, No Iterations 3
smoothSolver:  Solving for h, Initial residual = 0.00452176, Final residual = 4.46744e-06, No Iterations 3
GAMG:  Solving for p, Initial residual = 0.00893523, Final residual = 0.000248412, No Iterations 2
diagonal:  Solving for rho, Initial residual = 0, Final residual = 0, No Iterations 0
time step continuity errors : sum local = 2.8259e-06, global = -3.92778e-08, cumulative = -9.15705e-05
GAMG:  Solving for p, Initial residual = 0.00107212, Final residual = 4.07176e-07, No Iterations 5
diagonal:  Solving for rho, Initial residual = 0, Final residual = 0, No Iterations 0
time step continuity errors : sum local = 4.62995e-09, global = 4.66959e-11, cumulative = -9.15705e-05
smoothSolver:  Solving for epsilon, Initial residual = 0.00432475, Final residual = 2.18724e-06, No Iterations 3
smoothSolver:  Solving for k, Initial residual = 0.00430902, Final residual = 7.36198e-06, No Iterations 3
ExecutionTime = 0.3 s  ClockTime = 1 s

[...]
diagonal:  Solving for rho, Initial residual = 0, Final residual = 0, No Iterations 0
time step continuity errors : sum local = 1.99141e-09, global = 6.44213e-11, cumulative = -8.83219e-05
GAMG:  Solving for p, Initial residual = 1.68499e-07, Final residual = 1.68499e-07, No Iterations 0
diagonal:  Solving for rho, Initial residual = 0, Final residual = 0, No Iterations 0
time step continuity errors : sum local = 1.99728e-09, global = 6.44213e-11, cumulative = -8.83218e-05
smoothSolver:  Solving for epsilon, Initial residual = 9.78503e-06, Final residual = 9.78503e-06, No Iterations 0
smoothSolver:  Solving for k, Initial residual = 9.80385e-06, Final residual = 9.80385e-06, No Iterations 0
ExecutionTime = 7.94 s  ClockTime = 8 s

smoothSolver:  Solving for tracer0, Initial residual = 0.000196845, Final residual = 3.05156e-06, No Iterations 1
Courant Number mean: 0.154329 max: 0.999686
deltaT = 4.9505e-05
Time = 0.0994059

PIMPLE: iteration 1
diagonal:  Solving for rho, Initial residual = 0, Final residual = 0, No Iterations 0
smoothSolver:  Solving for Ux, Initial residual = 1.81028e-08, Final residual = 1.81028e-08, No Iterations 0
smoothSolver:  Solving for Uy, Initial residual = 2.02113e-08, Final residual = 2.02113e-08, No Iterations 0
smoothSolver:  Solving for h, Initial residual = 5.87009e-05, Final residual = 1.70613e-06, No Iterations 1
GAMG:  Solving for p, Initial residual = 8.09176e-07, Final residual = 8.09176e-07, No Iterations 0
diagonal:  Solving for rho, Initial residual = 0, Final residual = 0, No Iterations 0
time step continuity errors : sum local = 9.59148e-09, global = -1.35398e-09, cumulative = -8.83232e-05
GAMG:  Solving for p, Initial residual = 8.20337e-07, Final residual = 8.20337e-07, No Iterations 0
diagonal:  Solving for rho, Initial residual = 0, Final residual = 0, No Iterations 0
time step continuity errors : sum local = 9.72377e-09, global = -1.35398e-09, cumulative = -8.83245e-05
smoothSolver:  Solving for epsilon, Initial residual = 9.78539e-06, Final residual = 9.78539e-06, No Iterations 0
smoothSolver:  Solving for k, Initial residual = 9.8041e-06, Final residual = 9.8041e-06, No Iterations 0
ExecutionTime = 7.94 s  ClockTime = 8 s

smoothSolver:  Solving for tracer0, Initial residual = 0.000196928, Final residual = 3.04555e-06, No Iterations 1
Courant Number mean: 0.154329 max: 0.999686
deltaT = 4.9505e-05
Time = 0.0994554

PIMPLE: iteration 1
diagonal:  Solving for rho, Initial residual = 0, Final residual = 0, No Iterations 0
smoothSolver:  Solving for Ux, Initial residual = 1.75707e-08, Final residual = 1.75707e-08, No Iterations 0
smoothSolver:  Solving for Uy, Initial residual = 1.89016e-08, Final residual = 1.89016e-08, No Iterations 0
smoothSolver:  Solving for h, Initial residual = 5.88122e-05, Final residual = 1.71655e-06, No Iterations 1
GAMG:  Solving for p, Initial residual = 7.94298e-07, Final residual = 7.94298e-07, No Iterations 0
diagonal:  Solving for rho, Initial residual = 0, Final residual = 0, No Iterations 0
time step continuity errors : sum local = 9.41513e-09, global = -9.79984e-10, cumulative = -8.83255e-05
GAMG:  Solving for p, Initial residual = 8.09131e-07, Final residual = 8.09131e-07, No Iterations 0
diagonal:  Solving for rho, Initial residual = 0, Final residual = 0, No Iterations 0
time step continuity errors : sum local = 9.59095e-09, global = -9.79984e-10, cumulative = -8.83265e-05
smoothSolver:  Solving for epsilon, Initial residual = 9.786e-06, Final residual = 9.786e-06, No Iterations 0
smoothSolver:  Solving for k, Initial residual = 9.80464e-06, Final residual = 9.80464e-06, No Iterations 0
ExecutionTime = 7.95 s  ClockTime = 8 s

smoothSolver:  Solving for tracer0, Initial residual = 0.000196731, Final residual = 3.049e-06, No Iterations 1
Courant Number mean: 0.154329 max: 0.999686
deltaT = 4.9505e-05
Time = 0.099505

PIMPLE: iteration 1
diagonal:  Solving for rho, Initial residual = 0, Final residual = 0, No Iterations 0
smoothSolver:  Solving for Ux, Initial residual = 1.73141e-08, Final residual = 1.73141e-08, No Iterations 0
smoothSolver:  Solving for Uy, Initial residual = 1.80695e-08, Final residual = 1.80695e-08, No Iterations 0
smoothSolver:  Solving for h, Initial residual = 5.86993e-05, Final residual = 1.71288e-06, No Iterations 1
GAMG:  Solving for p, Initial residual = 1.40536e-06, Final residual = 2.01261e-07, No Iterations 1
diagonal:  Solving for rho, Initial residual = 0, Final residual = 0, No Iterations 0
time step continuity errors : sum local = 2.38562e-09, global = 8.73201e-11, cumulative = -8.83264e-05
GAMG:  Solving for p, Initial residual = 1.87349e-07, Final residual = 1.87349e-07, No Iterations 0
diagonal:  Solving for rho, Initial residual = 0, Final residual = 0, No Iterations 0
time step continuity errors : sum local = 2.22072e-09, global = 8.73201e-11, cumulative = -8.83263e-05
smoothSolver:  Solving for epsilon, Initial residual = 9.7862e-06, Final residual = 9.7862e-06, No Iterations 0
smoothSolver:  Solving for k, Initial residual = 9.80473e-06, Final residual = 9.80473e-06, No Iterations 0
ExecutionTime = 7.95 s  ClockTime = 8 s

smoothSolver:  Solving for tracer0, Initial residual = 0.000196814, Final residual = 3.04303e-06, No Iterations 1
Courant Number mean: 0.154329 max: 0.999686
deltaT = 4.9505e-05
Time = 0.0995545

PIMPLE: iteration 1
diagonal:  Solving for rho, Initial residual = 0, Final residual = 0, No Iterations 0
smoothSolver:  Solving for Ux, Initial residual = 2.91825e-08, Final residual = 2.91825e-08, No Iterations 0
smoothSolver:  Solving for Uy, Initial residual = 3.13375e-08, Final residual = 3.13375e-08, No Iterations 0
smoothSolver:  Solving for h, Initial residual = 5.84727e-05, Final residual = 1.70083e-06, No Iterations 1
GAMG:  Solving for p, Initial residual = 1.26022e-06, Final residual = 1.60553e-07, No Iterations 1
diagonal:  Solving for rho, Initial residual = 0, Final residual = 0, No Iterations 0
time step continuity errors : sum local = 1.9031e-09, global = 5.37034e-11, cumulative = -8.83263e-05
GAMG:  Solving for p, Initial residual = 1.63093e-07, Final residual = 1.63093e-07, No Iterations 0
diagonal:  Solving for rho, Initial residual = 0, Final residual = 0, No Iterations 0
time step continuity errors : sum local = 1.9332e-09, global = 5.37034e-11, cumulative = -8.83262e-05
smoothSolver:  Solving for epsilon, Initial residual = 9.78662e-06, Final residual = 9.78662e-06, No Iterations 0
smoothSolver:  Solving for k, Initial residual = 9.80518e-06, Final residual = 9.80518e-06, No Iterations 0
ExecutionTime = 7.95 s  ClockTime = 8 s

smoothSolver:  Solving for tracer0, Initial residual = 0.000196617, Final residual = 3.04648e-06, No Iterations 1
Courant Number mean: 0.154329 max: 0.999686
deltaT = 4.9505e-05
Time = 0.099604

PIMPLE: iteration 1
diagonal:  Solving for rho, Initial residual = 0, Final residual = 0, No Iterations 0
smoothSolver:  Solving for Ux, Initial residual = 1.95273e-08, Final residual = 1.95273e-08, No Iterations 0
smoothSolver:  Solving for Uy, Initial residual = 1.90103e-08, Final residual = 1.90103e-08, No Iterations 0
smoothSolver:  Solving for h, Initial residual = 5.82395e-05, Final residual = 1.69003e-06, No Iterations 1
GAMG:  Solving for p, Initial residual = 7.77052e-07, Final residual = 7.77052e-07, No Iterations 0
diagonal:  Solving for rho, Initial residual = 0, Final residual = 0, No Iterations 0
time step continuity errors : sum local = 9.2107e-09, global = -1.33787e-09, cumulative = -8.83275e-05
GAMG:  Solving for p, Initial residual = 7.92696e-07, Final residual = 7.92696e-07, No Iterations 0
diagonal:  Solving for rho, Initial residual = 0, Final residual = 0, No Iterations 0
time step continuity errors : sum local = 9.39613e-09, global = -1.33787e-09, cumulative = -8.83289e-05
smoothSolver:  Solving for epsilon, Initial residual = 9.78688e-06, Final residual = 9.78688e-06, No Iterations 0
smoothSolver:  Solving for k, Initial residual = 9.80525e-06, Final residual = 9.80525e-06, No Iterations 0
ExecutionTime = 7.96 s  ClockTime = 8 s

smoothSolver:  Solving for tracer0, Initial residual = 0.000196699, Final residual = 3.04049e-06, No Iterations 1
Courant Number mean: 0.154329 max: 0.999686
deltaT = 4.9505e-05
Time = 0.0996535

PIMPLE: iteration 1
diagonal:  Solving for rho, Initial residual = 0, Final residual = 0, No Iterations 0
smoothSolver:  Solving for Ux, Initial residual = 1.87446e-08, Final residual = 1.87446e-08, No Iterations 0
smoothSolver:  Solving for Uy, Initial residual = 1.74329e-08, Final residual = 1.74329e-08, No Iterations 0
smoothSolver:  Solving for h, Initial residual = 5.83611e-05, Final residual = 1.7018e-06, No Iterations 1
GAMG:  Solving for p, Initial residual = 7.8317e-07, Final residual = 7.8317e-07, No Iterations 0
diagonal:  Solving for rho, Initial residual = 0, Final residual = 0, No Iterations 0
time step continuity errors : sum local = 9.28322e-09, global = -9.71644e-10, cumulative = -8.83298e-05
GAMG:  Solving for p, Initial residual = 8.02198e-07, Final residual = 8.02198e-07, No Iterations 0
diagonal:  Solving for rho, Initial residual = 0, Final residual = 0, No Iterations 0
time step continuity errors : sum local = 9.50877e-09, global = -9.71644e-10, cumulative = -8.83308e-05
smoothSolver:  Solving for epsilon, Initial residual = 9.78741e-06, Final residual = 9.78741e-06, No Iterations 0
smoothSolver:  Solving for k, Initial residual = 9.80563e-06, Final residual = 9.80563e-06, No Iterations 0
ExecutionTime = 7.96 s  ClockTime = 8 s

smoothSolver:  Solving for tracer0, Initial residual = 0.000196502, Final residual = 3.04395e-06, No Iterations 1
Courant Number mean: 0.154329 max: 0.999686
deltaT = 4.9505e-05
Time = 0.099703

PIMPLE: iteration 1
diagonal:  Solving for rho, Initial residual = 0, Final residual = 0, No Iterations 0
smoothSolver:  Solving for Ux, Initial residual = 1.82527e-08, Final residual = 1.82527e-08, No Iterations 0
smoothSolver:  Solving for Uy, Initial residual = 1.62723e-08, Final residual = 1.62723e-08, No Iterations 0
smoothSolver:  Solving for h, Initial residual = 5.82491e-05, Final residual = 1.69816e-06, No Iterations 1
GAMG:  Solving for p, Initial residual = 1.37637e-06, Final residual = 1.91982e-07, No Iterations 1
diagonal:  Solving for rho, Initial residual = 0, Final residual = 0, No Iterations 0
time step continuity errors : sum local = 2.27564e-09, global = 5.71851e-11, cumulative = -8.83308e-05
GAMG:  Solving for p, Initial residual = 1.77364e-07, Final residual = 1.77364e-07, No Iterations 0
diagonal:  Solving for rho, Initial residual = 0, Final residual = 0, No Iterations 0
time step continuity errors : sum local = 2.10237e-09, global = 5.71851e-11, cumulative = -8.83307e-05
smoothSolver:  Solving for epsilon, Initial residual = 9.78759e-06, Final residual = 9.78759e-06, No Iterations 0
smoothSolver:  Solving for k, Initial residual = 9.80581e-06, Final residual = 9.80581e-06, No Iterations 0
ExecutionTime = 7.96 s  ClockTime = 8 s

smoothSolver:  Solving for tracer0, Initial residual = 0.000196585, Final residual = 3.03801e-06, No Iterations 1
Courant Number mean: 0.154329 max: 0.999686
deltaT = 4.9505e-05
Time = 0.0997525

PIMPLE: iteration 1
diagonal:  Solving for rho, Initial residual = 0, Final residual = 0, No Iterations 0
smoothSolver:  Solving for Ux, Initial residual = 2.92087e-08, Final residual = 2.92087e-08, No Iterations 0
smoothSolver:  Solving for Uy, Initial residual = 3.07956e-08, Final residual = 3.07956e-08, No Iterations 0
smoothSolver:  Solving for h, Initial residual = 5.79784e-05, Final residual = 1.68491e-06, No Iterations 1
GAMG:  Solving for p, Initial residual = 1.18998e-06, Final residual = 1.50465e-07, No Iterations 1
diagonal:  Solving for rho, Initial residual = 0, Final residual = 0, No Iterations 0
time step continuity errors : sum local = 1.78352e-09, global = 4.62578e-11, cumulative = -8.83307e-05
GAMG:  Solving for p, Initial residual = 1.57771e-07, Final residual = 1.57771e-07, No Iterations 0
diagonal:  Solving for rho, Initial residual = 0, Final residual = 0, No Iterations 0
time step continuity errors : sum local = 1.87013e-09, global = 4.62578e-11, cumulative = -8.83306e-05
smoothSolver:  Solving for epsilon, Initial residual = 9.7881e-06, Final residual = 9.7881e-06, No Iterations 0
smoothSolver:  Solving for k, Initial residual = 9.8064e-06, Final residual = 9.8064e-06, No Iterations 0
ExecutionTime = 7.97 s  ClockTime = 8 s

smoothSolver:  Solving for tracer0, Initial residual = 0.000196389, Final residual = 3.0415e-06, No Iterations 1
Courant Number mean: 0.154329 max: 0.999686
deltaT = 4.9505e-05
Time = 0.099802

PIMPLE: iteration 1
diagonal:  Solving for rho, Initial residual = 0, Final residual = 0, No Iterations 0
smoothSolver:  Solving for Ux, Initial residual = 1.95459e-08, Final residual = 1.95459e-08, No Iterations 0
smoothSolver:  Solving for Uy, Initial residual = 1.9692e-08, Final residual = 1.9692e-08, No Iterations 0
smoothSolver:  Solving for h, Initial residual = 5.78038e-05, Final residual = 1.6758e-06, No Iterations 1
GAMG:  Solving for p, Initial residual = 7.54804e-07, Final residual = 7.54804e-07, No Iterations 0
diagonal:  Solving for rho, Initial residual = 0, Final residual = 0, No Iterations 0
time step continuity errors : sum local = 8.94699e-09, global = -1.32341e-09, cumulative = -8.83319e-05
GAMG:  Solving for p, Initial residual = 7.7403e-07, Final residual = 7.7403e-07, No Iterations 0
diagonal:  Solving for rho, Initial residual = 0, Final residual = 0, No Iterations 0
time step continuity errors : sum local = 9.17487e-09, global = -1.32341e-09, cumulative = -8.83333e-05
smoothSolver:  Solving for epsilon, Initial residual = 9.78842e-06, Final residual = 9.78842e-06, No Iterations 0
smoothSolver:  Solving for k, Initial residual = 9.80662e-06, Final residual = 9.80662e-06, No Iterations 0
ExecutionTime = 7.97 s  ClockTime = 8 s

smoothSolver:  Solving for tracer0, Initial residual = 0.00019647, Final residual = 3.03555e-06, No Iterations 1
Courant Number mean: 0.154329 max: 0.999686
deltaT = 4.9505e-05
Time = 0.0998515

PIMPLE: iteration 1
diagonal:  Solving for rho, Initial residual = 0, Final residual = 0, No Iterations 0
smoothSolver:  Solving for Ux, Initial residual = 1.91385e-08, Final residual = 1.91385e-08, No Iterations 0
smoothSolver:  Solving for Uy, Initial residual = 1.85044e-08, Final residual = 1.85044e-08, No Iterations 0
smoothSolver:  Solving for h, Initial residual = 5.79164e-05, Final residual = 1.68717e-06, No Iterations 1
GAMG:  Solving for p, Initial residual = 7.81982e-07, Final residual = 7.81982e-07, No Iterations 0
diagonal:  Solving for rho, Initial residual = 0, Final residual = 0, No Iterations 0
time step continuity errors : sum local = 9.26914e-09, global = -9.6292e-10, cumulative = -8.83342e-05
GAMG:  Solving for p, Initial residual = 8.04213e-07, Final residual = 8.04213e-07, No Iterations 0
diagonal:  Solving for rho, Initial residual = 0, Final residual = 0, No Iterations 0
time step continuity errors : sum local = 9.53264e-09, global = -9.6292e-10, cumulative = -8.83352e-05
smoothSolver:  Solving for epsilon, Initial residual = 9.78898e-06, Final residual = 9.78898e-06, No Iterations 0
smoothSolver:  Solving for k, Initial residual = 9.80712e-06, Final residual = 9.80712e-06, No Iterations 0
ExecutionTime = 7.98 s  ClockTime = 8 s

smoothSolver:  Solving for tracer0, Initial residual = 0.000196275, Final residual = 3.03905e-06, No Iterations 1
Courant Number mean: 0.154329 max: 0.999686
deltaT = 4.9505e-05
Time = 0.099901

PIMPLE: iteration 1
diagonal:  Solving for rho, Initial residual = 0, Final residual = 0, No Iterations 0
smoothSolver:  Solving for Ux, Initial residual = 1.89486e-08, Final residual = 1.89486e-08, No Iterations 0
smoothSolver:  Solving for Uy, Initial residual = 1.77431e-08, Final residual = 1.77431e-08, No Iterations 0
smoothSolver:  Solving for h, Initial residual = 5.78054e-05, Final residual = 1.68357e-06, No Iterations 1
GAMG:  Solving for p, Initial residual = 1.36745e-06, Final residual = 2.08237e-07, No Iterations 1
diagonal:  Solving for rho, Initial residual = 0, Final residual = 0, No Iterations 0
time step continuity errors : sum local = 2.46832e-09, global = 8.1722e-11, cumulative = -8.83351e-05
GAMG:  Solving for p, Initial residual = 1.85383e-07, Final residual = 1.85383e-07, No Iterations 0
diagonal:  Solving for rho, Initial residual = 0, Final residual = 0, No Iterations 0
time step continuity errors : sum local = 2.19741e-09, global = 8.1722e-11, cumulative = -8.8335e-05
smoothSolver:  Solving for epsilon, Initial residual = 9.78924e-06, Final residual = 9.78924e-06, No Iterations 0
smoothSolver:  Solving for k, Initial residual = 9.80729e-06, Final residual = 9.80729e-06, No Iterations 0
ExecutionTime = 7.98 s  ClockTime = 8 s

smoothSolver:  Solving for tracer0, Initial residual = 0.000196356, Final residual = 3.0331e-06, No Iterations 1
Courant Number mean: 0.154329 max: 0.999686
deltaT = 4.9505e-05
Time = 0.0999505

PIMPLE: iteration 1
diagonal:  Solving for rho, Initial residual = 0, Final residual = 0, No Iterations 0
smoothSolver:  Solving for Ux, Initial residual = 2.94863e-08, Final residual = 2.94863e-08, No Iterations 0
smoothSolver:  Solving for Uy, Initial residual = 3.12596e-08, Final residual = 3.12596e-08, No Iterations 0
smoothSolver:  Solving for h, Initial residual = 5.7591e-05, Final residual = 1.67108e-06, No Iterations 1
GAMG:  Solving for p, Initial residual = 1.15021e-06, Final residual = 1.45942e-07, No Iterations 1
diagonal:  Solving for rho, Initial residual = 0, Final residual = 0, No Iterations 0
time step continuity errors : sum local = 1.72991e-09, global = 4.69389e-11, cumulative = -8.8335e-05
GAMG:  Solving for p, Initial residual = 1.57148e-07, Final residual = 1.57148e-07, No Iterations 0
diagonal:  Solving for rho, Initial residual = 0, Final residual = 0, No Iterations 0
time step continuity errors : sum local = 1.86274e-09, global = 4.69389e-11, cumulative = -8.83349e-05
smoothSolver:  Solving for epsilon, Initial residual = 9.78968e-06, Final residual = 9.78968e-06, No Iterations 0
smoothSolver:  Solving for k, Initial residual = 9.80773e-06, Final residual = 9.80773e-06, No Iterations 0
ExecutionTime = 7.98 s  ClockTime = 8 s

smoothSolver:  Solving for tracer0, Initial residual = 0.000196162, Final residual = 3.03659e-06, No Iterations 1
Courant Number mean: 0.154329 max: 0.999686
deltaT = 4.9505e-05
Time = 0.1

PIMPLE: iteration 1
diagonal:  Solving for rho, Initial residual = 0, Final residual = 0, No Iterations 0
smoothSolver:  Solving for Ux, Initial residual = 2.19661e-08, Final residual = 2.19661e-08, No Iterations 0
smoothSolver:  Solving for Uy, Initial residual = 1.97675e-08, Final residual = 1.97675e-08, No Iterations 0
smoothSolver:  Solving for h, Initial residual = 5.73549e-05, Final residual = 1.66095e-06, No Iterations 1
GAMG:  Solving for p, Initial residual = 7.47523e-07, Final residual = 7.47523e-07, No Iterations 0
diagonal:  Solving for rho, Initial residual = 0, Final residual = 0, No Iterations 0
time step continuity errors : sum local = 8.86068e-09, global = -1.31249e-09, cumulative = -8.83362e-05
GAMG:  Solving for p, Initial residual = 7.74718e-07, Final residual = 7.74718e-07, No Iterations 0
diagonal:  Solving for rho, Initial residual = 0, Final residual = 0, No Iterations 0
time step continuity errors : sum local = 9.18304e-09, global = -1.31249e-09, cumulative = -8.83376e-05
smoothSolver:  Solving for epsilon, Initial residual = 9.78999e-06, Final residual = 9.78999e-06, No Iterations 0
smoothSolver:  Solving for k, Initial residual = 9.80785e-06, Final residual = 9.80785e-06, No Iterations 0
ExecutionTime = 7.99 s  ClockTime = 8 s

smoothSolver:  Solving for tracer0, Initial residual = 0.000275427, Final residual = 6.46756e-06, No Iterations 1
End

